14

        O 2.2031133450 0.0129147996 0.1203966929
C 0.8388174730 -0.0513376551 0.3952729731
C 0.0743224110 1.1405242563 -0.1421112422
N -1.2781933748 0.5618729527 -0.4896063074
C -1.0378023145 -0.8580786256 -0.8122840716
C 0.2028355036 -1.2433607381 -0.3541554623
O 0.8646383504 -2.2811296357 -0.4590448770
H 2.4220659327 -0.8997141423 -0.1379309515
H 0.6659759578 -0.1742426373 1.4750317743
H -0.0592276357 1.9795031419 0.5400510590
H 0.5363293952 1.4755329439 -1.0691906440
H -1.6771716551 1.0690734775 -1.2756315926
H -1.8179238915 -1.3936315826 -1.3241900072
H -1.9174544971 0.6960854446 0.2958126567
        
