14

        C 1.9558945455 -0.6629195732 0.4308274031
N -1.2478863113 1.2554892626 0.7001952771
C -0.6675218529 1.3773595745 -0.5198900797
O -0.0327658366 2.2819205485 -1.0170440132
N -0.9396158385 0.1386387073 -1.2043550177
C -1.6303170680 -0.6566284711 -0.3937946380
N -1.7998622334 0.0200930834 0.7114273219
H 1.9933594964 0.2213748896 -0.2037813334
H 1.7304002587 -1.5436565790 -0.1708295825
H 2.9182701913 -0.7999777729 0.9212641240
H 1.1838574939 -0.5206437355 1.1865573360
H -0.6167654796 -0.0737869540 -2.1310229090
H -1.9811500022 -1.6560452404 -0.5890290769
H -2.2875863631 -0.2910147398 1.5325841885
        
