10

        O -2.2555855146 0.1517049797 -0.7876425400
C -1.4019490487 -0.6729100208 -0.0278864735
C -0.0350981815 -0.1972221519 0.1001032184
C 1.1059461662 0.1969726718 0.2267226558
C 2.6284831669 0.1473625072 -0.7329327478
C 2.4454551974 0.6899288600 0.4302451985
H -2.1430988369 1.0600644407 -0.5001587823
H -1.3921637447 -1.6485117661 -0.5193206090
H -1.7911159723 -0.8337750734 0.9872572854
H 2.8501437681 1.2294575530 1.2684877948
        
