11

        C 1.6122524486 0.1500953232 0.1036675730
C 0.3400272893 0.2372798807 -0.6989949885
N -1.9580352908 -0.5724915701 0.4060798491
C -0.9648481047 0.1658091643 -0.1078707737
N -0.6545689082 1.3505198630 -0.3859182448
H 2.3498917440 0.8622952067 -0.2727609664
H 1.4248232291 0.3806087644 1.1536052737
H 2.0517992160 -0.8490098184 0.0428376898
H 0.4460373752 -0.0002874822 -1.7579425582
H -2.7244272571 -0.1085682518 0.8613369720
H -1.7896997416 -1.5340930796 0.6301781740
        
