16

        C 2.7412416600 0.1705994065 -0.1908189451
C 1.4212645815 0.5398295053 -0.8567097192
C 0.2442070029 -0.0899771278 -0.1741560680
C -2.1499668564 -1.0496862871 0.8109656229
C -2.0377047319 0.3626915629 0.2970835478
O -0.7493155922 0.7340477072 -0.2551728404
H 2.8330669516 -0.9120770072 -0.0954072325
H 2.8045343197 0.5973743446 0.8118927330
H 3.5902874191 0.5428444926 -0.7662728545
H 1.3908940866 0.1008869698 -1.8646616055
H 1.3067140290 1.6241985276 -0.9778541754
H -1.4512685243 -1.2406148603 1.6229659722
H -3.1706791965 -1.1917398460 1.1741865788
H -1.9492076810 -1.7780375281 0.0262734038
H -2.2270486726 1.0928299319 1.0859959799
H -2.7470957956 0.5518052080 -0.5100923978
        
