14

        C 1.8799741170 -0.3153222555 0.0328818777
C 0.7863853320 0.4781595125 -0.6823813666
C -0.5535295541 0.3119038456 -0.0667249969
C -1.4776599013 -0.8549095693 0.1909980660
O -2.4178029215 0.0828257385 0.7968444080
C -1.4886220434 1.0652575121 0.5081658576
H 1.9678031158 -0.0039985600 1.0752872171
H 2.8482988990 -0.1729668012 -0.4500950224
H 1.6587671601 -1.3850291654 0.0232489198
H 1.0386810907 1.5417141280 -0.6842141763
H 0.7488308102 0.1710465791 -1.7333260026
H -1.1565622725 -1.5980656782 0.9225817732
H -1.9252152593 -1.3351253859 -0.6807522534
H -1.6730385727 2.1006860998 0.7626436984
        
