17

        C 1.4893556335 -0.5388944728 -0.6025921092
C 0.6900234705 0.3139901729 0.3629269713
C 0.1460723984 1.6829946780 -0.1285739426
C -1.2708723457 1.2479277280 0.2504093966
O -1.9015513650 0.5461654727 -0.8570871529
C -1.5217059123 -0.6683269144 -0.4832185198
C -0.7690482927 -0.1233366034 0.7261606297
H 1.6788826441 -1.5300244662 -0.1868155707
H 2.4529749330 -0.0695586990 -0.8135026534
H 0.9629365001 -0.6726938871 -1.5494276484
H 1.2518469643 0.4465258775 1.2887303815
H 0.5082018167 2.5343793238 0.4462114837
H 0.2661716476 1.8943799025 -1.1916645995
H -1.9606580411 1.9206303517 0.7545508936
H -0.2305452847 -3.8123092079 0.0862166024
H -0.6128537957 -3.2357472883 -0.1983869564
H -0.9437849710 -0.5903079680 1.6912667941
        
