13

        C -1.3365169341 -1.3912005220 0.7076174790
C -0.8535778215 -0.1130123532 0.1813392250
O 0.3099039150 2.1634410609 -0.9561523508
C 0.5266162679 -0.1452779086 -0.2889778543
C 1.1858775532 1.2319653442 -0.3830040387
H -1.1812872863 -1.2179107749 1.7883698827
H -0.7732260727 -2.2955072190 0.4395736788
H -2.4109960352 -1.5368888903 0.5954088551
H -0.5643902145 1.9472352116 -0.5986154143
H 1.1794106505 -0.9168634125 0.1467461965
H 0.3004970950 -0.4843883964 -1.3236843264
H 1.4971561721 1.5433474459 0.6241517224
H 2.0840237106 1.1891934144 -1.0027900553
        
