12

        O -2.1443634782 0.4348816050 -0.6550550115
C -1.0099078637 0.1411788634 -1.1905837282
C 0.1206482105 0.5979594760 -0.2797292339
O -0.3359021990 1.0981934007 0.9717011626
C 1.1316435062 -0.5203446269 -0.0817403694
O 0.5864518549 -1.5264683515 0.7549409750
H -1.9924283770 0.8763746910 0.2199062450
H 1.4354943835 -0.9144139985 -1.0545009328
H 0.6007553581 1.4229557271 -0.8219944886
H -0.2577238680 0.3731309873 1.6039225213
H 2.0124405830 -0.1383044717 0.4357266067
H -0.0219421104 -2.0598343019 0.2367102534
        
