10

        O 0.9397150500 1.4545003570 0.0570540212
C 1.3211686785 0.3281232768 -0.0374177479
C 0.6616881060 -0.6919139859 -0.9845916592
O -0.2739218008 -0.4162763384 -1.6714292075
C -2.1877535445 1.0704711199 0.4359651545
O -2.6515391110 1.9291866295 -0.1191460196
H 2.1806777637 -0.0587383868 0.5471300452
H 1.1219756900 -1.7010390250 -0.9844078232
H -0.1158703763 -1.6479598872 1.8557090661
H -0.6225854556 -1.1290207599 1.6778921703
        
