16

        C 1.9025784695 -0.3858849606 1.6622479199
C 0.2471502720 -0.1877502500 -1.8115139808
C -0.7290918310 0.2089902345 -1.0233380843
O 0.7683394593 -1.1883255153 1.4210962866
C -1.2380477516 1.1980694068 -0.0758163920
C -2.0625417269 -0.0258990065 -0.4750901800
H 1.7704279946 0.6375555338 1.2907115270
H 2.8083692710 -0.8056549141 1.2099724074
H 2.0482447611 -0.3418643380 2.7414905237
H 0.1645679886 -1.0972479664 -2.3957706825
H 1.1592915716 0.3906508597 -1.9072211886
H 0.5791225263 -1.1550075623 0.4781833990
H -0.8227962123 1.2075191487 0.9252433276
H -1.5475085307 2.1646932593 -0.4555087178
H -2.1852209100 -0.8051073199 0.2682298837
H -2.9186253513 0.1266243903 -1.1217330489
        
