15

        C 1.5818062909 -0.6460201956 0.3868370853
C -0.0576592857 1.5527345635 -0.5073146189
C -0.8396954277 1.1226708518 0.7018259569
C -1.0987001814 -0.3383496098 0.3133675199
O -1.6372367711 -0.1511538310 -1.0101504545
C -0.3089336833 0.3453739030 -1.3375472343
C 0.2507061321 -0.7397393940 -0.3264808422
H 1.6761096382 -1.4601035900 1.1085421738
H 2.4002137040 -0.7425074697 -0.3282164273
H 1.7187546526 0.2975110580 0.9149696994
H -1.7717983787 1.7006961307 0.7205957490
H -0.3124564260 1.3228678479 1.6358090941
H -1.6926506404 -0.9923888505 0.9490621303
H -0.0776092468 0.3358727434 -2.3983009401
H 0.1414526233 -1.6965481577 -0.8397138915
        
