13

        C -1.8610384427 -1.3993741783 0.3358895379
C 0.9522214490 0.3878088468 0.7513586087
C 1.5747790709 -0.0557795650 -0.5285197843
O 1.8293145045 1.3749862116 -0.3071704470
C 0.4169223018 1.5847305612 0.0415645373
H -2.3134127859 -0.4812133181 -0.0373569012
H -2.6379438559 -2.0422899081 0.7465188065
H -1.3608895920 -1.9168913642 -0.4820982237
H -1.1370374968 -1.1610723398 1.1150807486
H 0.9962931788 -0.2015979864 -1.4451184300
H 2.4849255169 -0.6465142679 -0.4755403086
H 0.2683171300 2.4938693951 0.6174012591
H -0.2103889787 1.5095679128 -0.8511204035
        
