13

        O 2.2563250482 -1.2090261944 -0.0368956170
C 1.4356840561 -0.4630999145 -0.4806100177
N 0.0655510899 -0.4359332773 0.0343445668
C -0.4530506515 0.8867553950 0.2820700463
C -0.7795160312 1.3079380535 1.4849532277
C -0.7146472033 -1.1699076556 -1.0413554754
H 1.5502146944 0.2180603719 -1.3330032011
H 0.0436712740 -0.9884138253 0.8885400080
H -0.5614159081 1.4735543507 -0.6205041137
H -0.6797561240 0.6824965524 2.3642956470
H -1.1799871065 2.3026424561 1.6211995650
H -0.7110348619 -0.5246575218 -1.9238933133
H -0.1717952763 -2.0978927909 -1.2284803224
        
