19

        C -2.0577023559 -0.6548560680 0.1540628038
C -1.6176793619 -0.0908647861 -1.1584701178
C -2.2610903533 0.8439564501 -1.8411270371
C 1.6402767341 0.3376933161 0.8043416547
C 1.7919846835 -0.9924011660 0.2161042849
C 2.6493087425 -0.5361868930 1.3982289782
C 1.0304354397 1.5009729352 0.7956498317
H -2.1860847023 -1.7386378738 0.0895023212
H -3.0010334333 -0.2165509235 0.4825872840
H -1.3039481472 -0.4644230788 0.9230259276
H -0.6877386883 -0.4866998008 -1.5608451464
H -1.8842085660 1.2165039423 -2.7859483940
H -3.1898365872 1.2718793641 -1.4773235785
H 2.2723927232 -1.0798795277 -0.7516467785
H 1.0277254249 -1.7371253463 0.4091603927
H 3.6951990398 -0.3230932690 1.2095932945
H 2.4475117893 -0.9804250148 2.3661550111
H 0.2510152296 1.7205877765 0.0743529956
H 1.2896273887 2.2727879635 1.5111242722
        
