14

        O 1.5956470634 -1.3125533635 0.1643045603
C 0.8578434641 -0.5668172948 1.0881439028
C -0.1301517370 0.4999450499 0.4698419256
C -0.1289444855 0.7033972148 -1.0255746930
C -1.3661532347 0.1986624801 -0.4046770390
C -0.3623358009 -1.1592262711 1.5226986335
H 2.3572829586 -0.7946826091 -0.1066166333
H 1.5114966444 -0.0225082790 1.7778924047
H -0.2079694970 1.3916607002 1.0751923976
H 0.4590440020 0.0042472310 -1.6046750976
H -0.0853237302 1.7351092215 -1.3494220699
H -2.1962717983 0.8767823048 -0.2591886513
H -1.6339367505 -0.8316630896 -0.5681430660
H -0.6973800986 -0.6020032950 2.4103794256
        
