15

        N -2.0187804666 -0.8035395635 0.5413638496
C -1.0631627698 0.0004524442 0.6998965185
C -0.2374929286 0.6360725260 -0.4051750062
C 1.2259297838 0.1363057868 -0.3633236597
O 1.8791121488 0.4768571635 0.8279373269
C -0.2471816613 2.0951950057 -0.2842018410
N -0.2003739180 3.2350289842 -0.1620067453
H -2.2195769207 -0.9636974188 -0.4465436077
H -0.4869338840 -3.2046591437 0.1181692311
H -0.7569017206 0.2531545710 1.7154898889
H -0.6671825526 0.3703356934 -1.3756654470
H -0.0573179026 -3.6312132743 -0.3171964963
H 1.7537572212 0.5173436631 -1.2441918021
H 1.2125937506 -0.9531381506 -0.4164186744
H 2.0637118202 1.4197897143 0.8328794646
        
