11

        N 0.5199564178 0.9202818297 0.2500026065
C 0.7300360485 0.2473917736 -1.0095563530
O 0.1968634964 -1.0393402348 -0.8072828950
C -0.7153320468 -0.9960827220 0.2720549976
C -0.3901342080 0.2810647491 1.0293492612
O -0.8493266027 0.6502648970 2.0813388690
H 0.8193550826 1.8583749029 0.4471931655
H 1.7908990078 0.1521272746 -1.2528296716
H -0.5818707814 -1.8741537210 0.9034355112
H -1.7553948609 -0.9583762105 -0.0731898437
H 0.2127064467 0.7596194614 -1.8337106478
        
