14

        C 0.7763344657 0.9719867733 0.4151176443
C 1.6035534140 -0.2315565498 0.0732664057
O -1.4754450635 -1.6476668977 -1.1989243351
C -1.7442678563 -1.5854455835 -0.0315754811
O -0.5780111839 0.7394328637 0.7910720312
C -0.3235768426 1.4246564456 -0.4297696508
H 1.2652149779 1.7187128238 1.0380944434
H 2.5244175425 0.0772283300 -0.4255349500
H 1.0567420435 -0.9034934529 -0.5890060974
H 1.8785493959 -0.7766014679 0.9786870921
H -1.0930443274 -2.0256562636 0.7444397329
H -2.6653710348 -1.0978114760 0.3334332881
H -0.6127488038 2.4712775196 -0.4350643298
H -0.5650887273 0.8604769357 -1.3269887937
        
