16

        C -1.6700510604 1.0691036126 0.1531391616
C -1.3523171543 -0.3950499254 0.4373558815
C 0.1397850808 -0.7013452475 0.5530046002
C 0.9005136440 -0.4383182145 -0.7287178101
C 3.2584007287 -0.1079990031 -0.3899984412
O 2.2676822754 -0.9039111908 -0.5860357585
H -1.3102479771 1.3853858723 -0.8282634067
H -1.2119066094 1.7225513891 0.8999176160
H -2.7464022566 1.2456848141 0.1743966842
H -1.7921081117 -1.0260107885 -0.3420303754
H -1.8330144890 -0.6934231279 1.3721912657
H 0.2828794506 -1.7502105191 0.8245233765
H 0.5833150113 -0.1026979497 1.3556135764
H 0.4799028090 -0.9995970788 -1.5653038138
H 2.8414537293 0.9400213280 -0.3908107020
H 0.9400219294 0.6238370290 -0.9845828543
        
