10

        O -1.9755752099 0.0597313480 0.3067691651
C -0.6422528943 0.1207684605 0.2025029330
C 0.2973394847 1.0288997093 0.6068472553
C 1.5964859754 0.5356938481 0.2645793208
N 1.3238510763 -0.6554800523 -0.2708832103
N -0.0345515951 -0.9138337586 -0.4284145818
H -2.2838409240 0.8230142306 0.8000986280
H 0.0915749551 1.9748308143 1.0840274753
H 1.9582787298 -1.2234161824 -0.8034528289
H -0.3781355979 -1.8593344174 -0.3556431566
        
