19

        C 1.0072679581 -1.1509187521 -0.9898474085
C 0.8489539140 -1.6740019672 0.4036577135
O 0.5453820129 -0.7437725514 1.3486727926
C 0.2278254398 2.4029949730 0.1379515268
C -0.9786047820 1.9769002568 0.4898871331
C -1.9911590470 1.3943994591 -0.4422433599
C 0.9861643056 -2.9484377595 0.7496771009
H 0.0835027600 -0.6742728075 -1.3301972408
H 1.2539579001 -1.9535004580 -1.6817183120
H 1.8023009217 -0.4009971736 -1.0312387786
H 0.4618846838 0.1293356354 0.9472616312
H 0.9157389821 2.8201251844 0.8636953446
H 0.5638269063 2.3620944600 -0.8935841088
H -1.2714331224 2.0429311101 1.5353506329
H -2.9204765353 1.9679613506 -0.4112869794
H -1.6289368310 1.3837330666 -1.4713158799
H -2.2409925238 0.3709403264 -0.1493758147
H 1.2290479792 -3.6932141605 0.0064789890
H 0.8576860782 -3.2596941925 1.7775620181
        
