12

        C -1.8041940097 -0.0199286230 0.2237700209
N -0.4954184077 0.1590842038 0.1734439200
C 0.3944070761 -0.7616937836 -0.5611304461
C 1.7351689873 -0.1296886235 -0.3195770819
N 1.6227289256 0.9229914549 0.4031651791
C 0.2968449790 1.1077219657 0.7065031904
H 0.1074780470 -0.7885897630 -1.6127888581
H -2.4055559263 0.6807394213 0.7788703975
H -2.2319646991 -0.8673078859 -0.2839920853
H 0.3059210273 -1.7653833347 -0.1440612906
H 2.6761476951 -0.5037087311 -0.6973329071
H -0.0891776943 1.9176586992 1.2997179609
        
