14

        C -1.6641028001 0.7863385378 -0.2694670830
C -1.0332113445 -0.5766293771 0.0171839631
C 0.4102248159 -0.4826256108 0.3746955994
C 1.4995111249 0.0802289060 -0.4644725879
N 2.6586124094 -0.0979854128 0.3911379569
N 2.3058547367 -0.6237100837 1.4499437048
N 0.8911043490 -0.8863144172 1.4862126910
H -2.7264419467 0.6725416177 -0.4863543440
H -1.5653731492 1.4508146942 0.5903508053
H -1.2015023790 1.2725252768 -1.1306549511
H -1.5478008788 -1.0745224792 0.8390201023
H -1.1311434757 -1.2173679923 -0.8647468339
H 1.6493207090 -0.4476436189 -1.4100382689
H 1.3784498291 1.1416769594 -0.6963667540
        
