14

        C 2.3018446020 -0.1474151268 0.5261128495
N 2.0151866217 -0.5279692084 -0.8593137420
C -0.6640963300 1.6807109268 -0.5756330443
C -1.4771351269 0.9015799446 -0.1681655331
C -2.4668048938 -0.0505072347 0.3186674418
N 0.1906358528 -1.9451672431 -1.2367494353
N 1.0525322211 -1.2650556651 -1.0015788050
H 1.4633335383 0.3966226330 0.9681887242
H 3.1730954240 0.5012387873 0.4999731960
H 2.5341670426 -1.0208633683 1.1417075721
H 0.0586580532 2.3673206713 -0.9483852396
H -2.4139824051 -0.9785174902 -0.2519367688
H -2.2927534960 -0.2833683050 1.3701534085
H -3.4729421039 0.3593366788 0.2219883759
        
