14

        O 1.6151464974 -0.3423425046 -0.0483112603
C 1.5369952274 0.8192578691 -0.8901924944
C 0.4671139019 0.4672563030 0.0384004272
O 0.3094172010 1.1472683400 1.2306582395
C -1.3457849261 -1.1969441174 0.5587958552
C -0.8332296669 -0.1403129655 -0.4116727422
H -0.6139548020 -1.9979454291 0.6771911132
H 1.4412398044 0.6141982146 -1.9529136211
H 2.2247255259 1.6200869149 -0.6310104443
H 1.1783979814 1.3030508354 1.6092179559
H -1.5363351321 -0.7645178131 1.5410652672
H -2.2741053315 -1.6369689644 0.1922867111
H -0.6769222288 -0.5748812061 -1.4008501590
H -1.5622610517 0.6662205232 -0.5232188480
        
