17

        C 2.6018403460 -0.5595091313 -0.2636405418
C -1.0200339933 0.8157319885 0.1030158532
C -1.0861105743 0.1487222493 1.2610574291
C -1.1845686357 -1.2011834502 0.5978820236
C -1.1107498553 -0.4293191448 -0.7553830651
C -0.8988906142 2.2445545155 -0.2129756038
O -0.8324508180 3.1133462287 0.6193240152
H 3.5746695491 -0.4887562607 0.2199938830
H 2.6150334720 0.0149910514 -1.1888528145
H 2.3848860379 -1.6034782680 -0.4874491237
H -1.0728608979 0.4672494415 2.2956742962
H -2.1171350051 -1.7418054416 0.7706568910
H -0.3481247736 -1.8767859115 0.7885239741
H -0.2315629403 -0.6530424260 -1.3622299682
H -2.0040052934 -0.5115620377 -1.3770466263
H -0.8692132495 2.4938530115 -1.2937612158
H 1.8373852457 -0.1589774145 0.4012205940
        
