8

        O -0.2490319173 1.9425194699 0.0424623994
C -1.0080113111 0.9997475380 0.0521454032
C -0.6033044012 -0.3898125208 -0.0363672508
N 0.6596208030 -0.6532279664 -0.1495154787
C 1.8135973810 -0.7569720729 -0.3830780456
H -2.1023244751 1.1456411366 0.1302415975
H -1.3048295774 -1.2110566523 -0.0259589860
H 2.6678814982 -0.8799659322 0.2663403610
        
