14

        C 0.9095327101 1.7445216266 -0.1221682606
C 0.8471095990 -2.3825689612 0.2031611080
C 0.0399016419 -1.3916982732 -0.1401644763
O -0.5121240725 -0.5545724966 0.7700611412
C -1.2510831607 0.5274058515 0.2476880541
C -0.4085183445 1.6804541851 -0.2081535248
H 1.4897422359 0.9329838260 0.3002441267
H 1.4488898686 2.6151677158 -0.4729237578
H 1.1153754474 -2.5591417067 1.2365492494
H 1.2419188235 -3.0373640175 -0.5593595603
H -0.2338232525 -1.1985956484 -1.1756918904
H -1.9184921548 0.8505599350 1.0504412070
H -1.8904329227 0.1851961233 -0.5773239757
H -0.9681294189 2.5095598400 -0.6344494405
        
