12

        C -0.6659440219 1.4612742230 0.4725988691
C -0.5957908053 -2.1233962571 -0.3945043884
C -0.2092839429 -0.9238887443 -0.0884353746
C 0.2184190215 0.2750830868 0.2188715183
C 1.6856949202 0.4570375918 0.3200800079
O 2.2030254484 1.5073776697 0.5970688720
H -0.4947806453 1.8487830063 1.4780125534
H -0.4230343619 2.2639873291 -0.2252061413
H -1.7163624420 1.1982702909 0.3635838672
H -0.7320296900 -2.4179661017 -1.4287863080
H -0.7999993740 -2.8580153314 0.3759310237
H 2.2869618932 -0.4510237629 0.1212355009
        
