12

        N 1.1251428104 1.1324673382 1.2411656023
C 2.1175593970 1.2185678670 0.4080489927
C -1.5542507051 -1.2554297815 -0.1805505154
O -1.0813008700 0.0785398952 -0.2758506565
C 1.7577115146 0.7945572323 -0.9141637810
N 1.5696985447 0.4823141425 -2.0100299156
H 1.2774445138 1.4137203819 2.1977567827
H 0.1921408996 0.7933630550 0.9806367135
H -0.7398561729 -1.9807705313 -0.2665060181
H -2.3028430146 -1.4656645202 -0.9487793120
H -2.0223506242 -1.3632829454 0.7970113520
H -0.6211252932 0.1839648663 -1.1162252445
        
