16

        C 1.5367832392 -0.5765789834 1.0642559551
C 0.4156117963 -0.2971982772 0.1027157643
C 0.6121700573 0.5681720328 -1.1164247889
C -0.3272438483 1.0084958178 -0.0372290463
C -1.7867781515 0.6298009252 -0.2180786560
N -1.8434666016 -0.8351509368 -0.2878543402
C -0.6789296690 -1.2927225201 -0.0897787423
H 1.1569715436 -0.8014224132 2.0634180794
H 2.2019005030 0.2846159887 1.1436342180
H 2.1362337567 -1.4276225513 0.7316797450
H 1.5594113431 1.0884540895 -1.1890404338
H 0.2026424487 0.2330133427 -2.0625944653
H -0.0613733705 1.8652494096 0.5679503896
H -2.4060918891 0.9595978072 0.6202170322
H -2.2274926950 1.0470882376 -1.1270408625
H -0.5019234627 -2.3670029692 -0.0727808483
        
