15

        C -2.4601906392 -0.3614547718 0.5086181711
C -1.2488714670 -0.0171551470 -0.3387209126
C 0.0633012726 -0.1254693685 0.3981553135
O 0.1862643775 -0.6569571949 1.4682730480
C 1.1713098299 1.1920673850 -1.3394277279
C 1.2838100770 0.4553445385 -0.2790973658
C 2.6371630430 0.2014449834 0.3401729934
H -2.3850202012 -1.3731745797 0.9058839328
H -3.3708630451 -0.2922674474 -0.0868647214
H -2.5527070973 0.3181654685 1.3563162616
H -1.3131601153 0.9944592576 -0.7546563811
H -1.1696692920 -0.6843859397 -1.2038902832
H 2.6239802723 0.5592146852 1.3692672071
H 2.8312025740 -0.8710110322 0.3506537791
H 3.4328074109 0.7045581630 -0.2069083149
        
