21

        C -1.5901754773 -1.4269699704 -0.5101376540
C -0.0976622235 -1.1488191888 -0.3856400161
C -0.6363469517 1.2573364013 0.0312348703
C -0.3972201310 2.7170939469 0.2654957528
C 0.2718151756 0.3127746581 -0.2039892706
C 0.5044338454 -2.0023029914 0.7370679822
C 1.7502485231 0.5962479695 -0.2855530423
H -1.7556065181 -2.4856549703 -0.7201561735
H -2.0441118658 -0.8504842358 -1.3180757806
H -2.1215153868 -1.1921965205 0.4158178577
H 0.3733321827 -1.4700240519 -1.3243323015
H -1.6800431832 0.9624580058 0.0777869752
H -0.6961997370 2.9950639873 1.2803432130
H -1.0001402949 3.3231573272 -0.4158187599
H 0.6452924077 3.0065984076 0.1415871156
H 1.5886386485 -1.8963604472 0.7976747150
H 0.2840406966 -3.0601834419 0.5786703125
H 0.0839720542 -1.7085787693 1.7025745438
H 1.9611479029 1.6205459391 -0.5884794250
H 2.2418939868 0.4331055082 0.6775805950
H 2.2313293459 -0.0681545634 -1.0072855096
        
