12

        O 3.0168536993 -0.1386197078 0.6837308940
C 2.0347312694 0.4106951589 0.4111786476
C -0.4934943941 -1.1325827183 -0.2555181940
C -1.4344321644 -0.0757585826 0.2358946180
C -0.2152508867 0.3113051425 -0.5533955852
C 0.9120054132 1.0188649940 0.1167123080
H 0.1306617443 -1.6313442675 0.4751474525
H -0.8096613035 -1.7641609755 -1.0746807273
H -2.3997746641 0.0155592250 -0.2446026864
H -1.4285826923 0.1469860379 1.2947854858
H -0.4007226933 0.6211922510 -1.5763990740
H 0.8526866721 2.0710954424 0.3649668609
        
