16

        C 2.0440367403 0.2892468306 0.0950632567
C 0.5260019017 0.3533756104 0.1650890762
C -0.2111525593 -0.3136363310 -1.0047553659
C -1.4778902411 -0.9084741689 -0.4487229757
O -1.3480031007 -0.9221944615 0.8396747531
C -0.0730322678 -0.3956180374 1.3424321212
H 2.4151593553 0.8130746365 -0.7872466500
H 2.5081645142 0.7473941990 0.9708674949
H 2.3864793473 -0.7472489377 0.0365733423
H 0.2132735164 1.4000561289 0.2196436498
H -0.4223708893 0.3423892479 -1.8493602027
H 0.3460640710 -1.1697252230 -1.4115750360
H -3.5761306173 0.7019341795 -1.0373617864
H -3.9109419056 1.3704555265 -1.0528425439
H -0.3025528357 0.2130264657 2.2148772834
H 0.5252899704 -1.2572426655 1.6486515830
        
