16

        C -2.1889072374 -0.2678046089 -0.4037883915
C -0.7296134890 -0.7114642224 -0.2866808979
C 0.1911755217 0.4907583070 -0.0924952907
C 2.5138450875 1.4640946215 0.3530583591
O 1.5567954761 0.0787349715 0.0199245924
C -0.5442867201 -1.6510652819 0.8244282829
N -0.3529595991 -2.3563654247 1.7090332031
H -2.3009043794 0.4208010877 -1.2418252805
H -2.5175885769 0.2356245999 0.5058160828
H -2.8394815481 -1.1242149619 -0.5742027984
H -0.4274099172 -1.2363740552 -1.1971164857
H 0.1505815006 1.1321616173 -0.9710788190
H -0.0696789008 1.0835907847 0.7868119792
H 3.4734122090 0.9189849377 0.3590423260
H 2.4713642323 1.8720241637 -0.6721476649
H 1.6600453410 -0.4081195359 0.8482578031
        
