10

        N 1.5298024743 -0.4602842627 0.0884381241
C 0.2070372155 0.0325745358 -0.0244429322
N -0.7222457016 -1.0780453646 -0.0859444078
N -1.8745861717 -0.7667554807 0.2006629060
N -0.1229480156 1.2173125910 -0.8884075291
C -0.2014753067 1.3498471397 0.3566114210
H 2.2160503169 0.2579863584 -0.0887388147
H 1.6755479495 -1.2375080953 -0.5415129212
H -2.4481746863 -1.6116659695 0.0975825422
H -0.4223340743 2.1225825480 1.0817736117
        
