10

        C -1.6355174248 -0.1338854355 0.4042503348
C -1.1931533293 1.1099387080 0.2993038805
N 1.7990839509 -0.6861566732 0.1791743200
C 2.4592175788 -0.8918705590 -0.8083161345
O 3.1895703560 -1.1274235262 -1.6806252529
H -1.6590192364 -0.6513465841 1.3567702108
H -2.0003899304 -0.6816014258 -0.4573576674
H -1.1784267460 1.6299491016 -0.6519140959
H -0.8370130647 1.6615866920 1.1621881982
H 0.8513548457 -0.3385492978 0.2017602064
        
