11

        C -1.5595996546 0.0062991120 -0.1403979786
C -0.1216448831 -0.3194191088 0.0367710153
C 1.0140273090 0.6356936208 -0.0282258010
N 2.1500715472 -0.2332684322 0.2171299695
N 1.7504567083 -1.3890524332 0.3783188924
N 0.3182186622 -1.4938608528 0.2728844925
H -2.1622216405 -0.8943633503 -0.0478855330
H -1.7315077135 0.4544305818 -1.1213066384
H -1.8807653422 0.7329115729 0.6088295927
H 0.9771687465 1.4202068488 0.7321391211
H 1.1254652606 1.1242414411 -0.9998701324
        
