20

        C 2.6399769330 -0.1417796561 1.1058783314
C 0.1878651690 -0.7285210033 -1.5607944270
C 0.4757119409 0.7429697635 -1.7443171758
N -0.6173122327 0.3435184272 -0.8873479477
C -1.9746981118 0.7873346763 -0.7111396575
C -1.0434078040 0.6264536001 0.4589810052
C -1.1564015002 -0.5333209377 1.3999596813
H 2.1175370988 0.7192058777 1.5261124900
H 3.5860793147 0.1921577147 0.6807586319
H 2.8397209222 -0.8600188641 1.9005962490
H -0.4344396489 -1.0685397919 -2.3967005514
H 2.0319735972 -0.6140748760 0.3299593939
H 0.1492629324 1.3135293575 -2.6128605468
H 1.3244459215 1.1805899591 -1.2225055860
H -2.7308357640 0.0293240440 -0.8776744612
H -2.2137632718 1.7840499800 -1.0619797335
H -0.6356986520 1.5470865440 0.8646195812
H -1.8614127644 -0.3051869809 2.2007419374
H -1.4937943870 -1.4229524764 0.8680384163
H -0.1845136931 -0.7592283575 1.8389603693
        
