11

        O -0.8985572958 -2.2684074528 0.2434299050
C -1.2498896711 -1.4891517174 -0.5951672301
C -0.1704389617 1.7055016398 -0.0972856616
C 0.7176604625 0.8587581673 0.3360993429
C 1.5904830403 0.0012522092 0.7701409110
H 1.3343675424 -1.0491267895 0.8607406710
H -0.6253897602 -1.2588901900 -1.4782110327
H -2.2189772427 -0.9596034833 -0.5333106966
H -0.2536042833 1.9380506360 -1.1527801569
H -0.8374545156 2.2139164024 0.5889495491
H 2.5868916851 0.3167125782 1.0555633989
        
