11

        C -1.9116977905 -0.3254331163 0.6808431077
C 0.3977090718 -0.0225907853 1.5060298800
N -0.7760477085 -0.2183076720 1.5525763620
O 1.5516511490 0.1583286289 1.5978854916
C 1.8062410399 0.3755627235 -1.5961451522
O 0.6289559640 0.1763038578 -1.4817031796
H -2.3521622028 -1.3177087815 0.7788541935
H -1.6249159168 -0.1581822762 -0.3566018164
H -2.6619968023 0.4091737920 0.9728281833
H 2.4652496357 0.4665398085 -0.7159926993
H 2.2775545604 0.4736738207 -2.5917143704
        
