19

        C -0.8310992045 0.6078015396 -0.3179033962
C -1.4484360743 0.1822397776 1.0245480103
C -0.3900622201 -0.7049608575 1.7018257678
C 0.9446139436 -0.2006342725 1.1662555870
C 1.3915327564 -0.7123311030 -0.1684443401
C 0.6746231039 0.6100830326 -0.0721323238
O 0.8651633887 0.3676637236 -3.3506855165
H -1.1859949954 1.5906393695 -0.6330156428
H 1.0968363688 0.1569730584 -2.4414037948
H -1.0967791584 -0.0975380435 -1.1111055810
H -2.4137954440 -0.3146459026 0.9120007232
H -1.6114324911 1.0719374593 1.6382698362
H -0.5387790915 -1.7585896455 1.4499022755
H -0.4368436361 -0.6298791089 2.7889656685
H 1.7072655708 0.1086261250 1.8689336785
H 0.8543973843 -1.5529689566 -0.5957074315
H 2.4533458366 -0.7026357775 -0.3826477537
H 1.2389541623 1.5129792208 -0.2698933446
H 0.1698277999 1.0229533613 -3.2778594220
        
