13

        N -1.6162546317 -0.8934741872 -0.3221339450
C -0.3542763745 -0.3140388119 -0.5816845365
O -0.0786122383 -0.5651287243 -1.9172353172
C -0.1565921158 1.1232254175 -0.0615587867
C 0.9811210247 0.5399302020 0.7733710107
O 0.7510470950 -0.7754697684 0.2410794550
H -1.8500869337 -0.8536293798 0.6588458679
H -1.6391317082 -1.8514067056 -0.6445835986
H -1.0054232140 1.5184983671 0.4927555464
H 0.1296767732 1.8271428018 -0.8396131240
H 1.9854787556 0.8997063955 0.5377327990
H 0.8361334150 0.5663349307 1.8558713335
H 0.8760061524 -0.5499925376 -2.0162517047
        
