15

        C 1.8609333856 0.0407916552 0.9353677107
C 0.5593342570 0.6038123466 0.5348802475
C -0.5665349094 -0.8934076575 -1.2090108547
C -0.7045409594 -0.0313497817 0.0246270770
O -1.2971619686 -0.8240472910 1.0493241178
C -1.2376846074 1.4059641369 -0.2083664130
O 0.2623699406 1.8047853833 0.5609949159
H 2.5146158924 0.8080290045 1.3451743148
H 2.3276302492 -0.4230973489 0.0625122821
H 1.6857046546 -0.7521797170 1.6656149959
H -1.5636105050 -1.1080221360 -1.5947483473
H -0.0724119434 -1.8386003788 -0.9737818547
H -1.8028129122 -0.2368133208 1.6162670912
H -0.0114899282 -0.3658117870 -1.9847150303
H -1.9158736458 1.6648358923 0.6227837471
        
