15

        C 1.6972874752 -0.5742084710 0.3323961138
C 0.4484499833 0.2816785828 0.3885315023
C 0.2362463674 1.2793377202 -0.6805605061
O -1.0347659541 1.4838550562 -0.8053294009
C -1.7917116289 0.6761586492 -0.0449889255
C -0.9213972644 -0.4486638396 0.4135306891
O -0.9936821501 -1.6055843885 -0.4194722322
H 2.5941403707 0.0458233340 0.2830123415
H 1.6782547729 -1.2256508944 -0.5409067030
H 1.7710172148 -1.2050746219 1.2185940221
H 0.4169386880 0.8692164706 1.3289911063
H 0.9035408874 1.9577004034 -1.1864656335
H -2.8203075450 0.6128971698 -0.3672843160
H -1.1413603823 -0.8154472214 1.4135037359
H -1.0375668350 -1.3237059491 -1.3370877937
        
