14

        C -0.6552166810 -0.3261433414 -1.0100643310
C -0.1964596306 0.8789273754 -0.1711983028
C -0.6315091121 0.0698268678 1.0629704989
C -0.1141013287 -1.1490371572 0.2150404206
C 1.3375594426 -0.8817542042 0.1513905430
C 1.3065878627 0.5997136214 -0.1345878358
H -0.1901674520 -0.4888428125 -1.9838157815
H -1.7385473050 -0.4253413364 -1.0844778394
H -0.5503200840 1.8903450760 -0.3602438510
H -1.7124049307 0.0082171118 1.1924465246
H -0.1443630071 0.2734520501 2.0180137056
H -0.4487693659 -2.1638091619 0.4128572199
H 1.8434591963 0.7942676152 -1.0696285390
H 1.8635893954 1.1283872961 0.6466145681
        
