14

        C -2.1358232842 -0.9156623580 0.8371730412
C 0.2932122840 0.1334570069 -0.1254366261
C -0.6146121636 0.8479159799 0.5448026592
O -1.7840416735 0.4394629923 1.0351067439
C 1.5275023163 0.8168276820 -0.5732440501
O 1.7665157447 1.9901078491 -0.3584677263
N 2.4015010624 0.0256246373 -1.2569342358
H -3.1098400441 -1.0502781930 1.3009959373
H -2.2012772564 -1.1482005391 -0.2296699920
H -1.4074466224 -1.5795613273 1.3116230203
H 0.1569613690 -0.9166289728 -0.3486013033
H -0.4333627630 1.8976742964 0.7458781747
H 2.2099510743 -0.9364226705 -1.4584640221
H 3.2504509569 0.4407576167 -1.5947666208
        
