16

        C 1.9823465690 0.0252188180 -1.1966293718
C -0.4948582838 -0.0947898194 0.4922618052
C 0.1970875194 -0.7935623150 1.6063650328
C -1.9446329126 0.2969168462 0.2972597661
N -1.6114734388 0.6091739149 -1.1294714696
C -0.2826800306 0.2943842815 -0.7766077721
O 0.7035172323 0.4048413952 -1.6656472099
H 2.6832257067 0.2256455674 -2.0035764069
H 2.0048746266 -1.0400201030 -0.9505292301
H 2.2613485992 0.6093167226 -0.3149169327
H 0.1354008105 -0.2219434446 2.5365377464
H 1.2533920820 -0.9563240012 1.3927886825
H -0.2518544795 -1.7729791407 1.7997554432
H -2.6859306005 -0.5014504489 0.3784625900
H -2.2805556928 1.1742679625 0.8560933064
H -1.7662777070 1.5737267645 -1.4016149798
        
