12

        O -1.8601089503 0.2842753532 0.8633487239
C -1.2310212038 -0.9439688445 1.1315728509
C -0.6059816895 0.0444249422 0.2430646545
O 1.2588477682 -0.1568682050 -2.3660624862
C 0.5122330243 0.8478858636 0.8021474390
O 1.5351802495 1.0860516300 0.2139292919
H 1.6231916353 0.2870487885 -3.1318888700
H -1.6818898699 -1.8203283730 0.6773210515
H -0.8624922600 -1.0692308824 2.1465512367
H -0.6040190709 -0.1141963470 -0.8314246156
H 1.5890916775 0.3261376604 -1.5958720895
H 0.3402826896 1.2196724139 1.8315688129
        
