16

        C 1.8238806600 -0.4329385711 -0.0360533328
N 0.7142633748 0.5154253311 -0.0565253204
C -0.4295948910 0.5522227174 0.9753916270
C -1.1024653048 1.5098319963 -0.0554593898
C -0.4985154868 0.4284410160 -1.0035223298
C -1.0768926420 -0.9236720976 -0.5691032301
C -1.0302709075 -0.8415018626 0.7541713314
H 1.4317187386 -1.4442016936 0.0528617826
H 2.3925905381 -0.3406929670 -0.9608779352
H 2.4697327807 -0.2125322041 0.8132617963
H -0.1298082270 0.8419500510 1.9824484278
H 0.9821597143 1.5010107823 -0.1278581527
H -2.1940400560 1.4480907030 -0.0138824183
H -0.2698910256 0.5908811137 -2.0568883730
H -1.4238140632 -1.7188557065 -1.2121830609
H -1.3277462025 -1.5507506083 1.5121095777
        
