10

        N -1.5521515500 0.4002487100 -0.0315810616
C -0.1612760009 -0.0570130803 0.0508058671
N 0.0418100935 -1.1959291377 0.6150202020
O 1.4215736786 -1.2830416714 0.5066046444
C 1.8971808936 -0.1220528536 -0.1453524953
O 3.0644796113 0.0256668222 -0.3529519347
N 0.8086124534 0.6750437139 -0.4348268674
H -1.8137185559 0.5461010786 -1.0070764626
H -2.1482904018 -0.3132859410 0.3912177502
H -1.6582772217 1.2867353593 0.4623383578
        
