11

        C -1.5646322946 0.0693931427 -0.1782928378
C -0.1369047980 0.1511156370 0.2279383022
O 0.0449245451 0.6690874891 1.4704442460
C 0.8923215757 -0.2198457556 -0.5271544300
O 2.1771978035 -0.0017117266 -0.0570281277
H -2.1246519297 -0.5423769173 0.5319231040
H -1.6601828908 -0.3673858683 -1.1715579065
H -2.0158318724 1.0638435085 -0.1860331851
H 0.7767317491 -0.6108275771 -1.5298005588
H 2.7074005924 -0.7879038364 -0.1945897723
H 0.9953675198 0.6957019041 1.6325051660
        
