17

        O 1.8425161863 -1.2838441672 -1.2754140123
C 1.8183989755 -0.7308254039 0.0400930199
C 0.5571693188 -0.0177328394 0.3604571553
C -0.7720942511 -0.6615048826 0.4676231112
C -1.6710695347 -0.4351827426 -0.7575397270
C -0.2534931030 2.1572833319 0.7594227706
O 0.6643707951 1.2660015371 0.5022628282
H 1.7137623200 -0.5655099483 -1.8988160710
H 2.6610345408 -0.0491174186 0.1998345521
H 1.9514500150 -1.5933029525 0.6983882200
H -1.7647421861 0.6248168105 -1.0019929123
H -1.2751949072 -0.2810222952 1.3705368265
H -0.6230890201 -1.7328942689 0.6133922104
H -2.6744888525 -0.8266102453 -0.5824281869
H -1.2513521220 -0.9437996140 -1.6256710784
H -1.2845983540 1.8663523908 0.8781143060
H 0.1241001791 3.1531637083 0.9093769875
        
