9

        C -0.8395173419 -0.7573526134 0.2350392540
C 0.4776531437 -0.6504990946 0.1807385634
O 1.2418162506 -0.4852724639 1.2917738653
H -1.3691374676 -0.7180958719 1.1779899556
H -0.6757746889 2.0336255118 -1.0729829672
H -1.4037110804 -0.8890447190 -0.6763936909
H 1.0169053761 -0.6886477000 -0.7623561850
H -0.6747120160 2.6719588114 -1.4590043570
H 2.1643778244 -0.4204328605 1.0455405618
        
