12

        O 2.0796225896 1.1236351340 0.6635720158
C 2.0709513714 0.3024234758 -0.2080859730
C 0.9044148300 -0.6128357502 -0.5343725157
C -0.2884087250 -0.4650917656 0.3276334372
C -2.3906151758 0.5805979720 0.4052156058
O -1.2781399391 0.2151360135 -0.1468494610
H 2.9638448467 0.1524875767 -0.8533171423
H 1.3025100591 -1.6360138109 -0.5059667462
H 0.6396240992 -0.4348983182 -1.5824498309
H -0.3188026723 -0.7530838200 1.3714914412
H -3.0603277756 1.1267326675 -0.2346354434
H -2.5803285082 0.3317246255 1.4401976123
        
