11

        O -0.9894112586 1.3702213768 -0.7217406785
C -1.1215127879 0.9359761889 0.3868079458
C -0.5338957208 -0.3584705185 0.8558926147
C 0.8905044330 -0.6179831179 0.5962681727
O -0.1180025936 -1.2693946135 -0.1343588372
H 0.7637947367 0.2672656113 -2.5006009560
H -1.6865081878 1.4945847949 1.1607085341
H -0.9963015566 -0.7971653397 1.7371589781
H 1.4065589535 0.2323074777 -2.8784266893
H 1.4478117610 -1.2377961131 1.2922019978
H 1.4566392209 0.1242762531 0.0409469178
        
