15

        C -1.0833801290 0.2951143233 -0.9821348707
C -1.7940798442 0.0953708283 0.3407030256
C -0.3402789920 -0.1258795068 0.2229172150
C 0.6876861920 -1.1361753710 0.5590689602
C 2.2070358718 0.9912034139 -1.0247714326
O 1.8454577441 1.1414861038 0.2009122929
C 0.8812515659 0.3180463522 0.8923703034
H -1.2484619264 -0.4381943792 -1.7611574141
H -0.9472076317 1.3112103430 -1.3329453030
H -2.1367441184 0.9773115675 0.8669223497
H -2.4308405827 -0.7745240465 0.4418322621
H 0.5290429985 -1.8128789467 1.3895909219
H 1.2738269997 -1.5404353898 -0.2594389073
H 1.6715678672 0.0988310308 -1.4433857240
H 0.8626239853 0.6324996770 1.9263073209
        
