10

        O -0.1746490150 2.2593239129 -0.1713949981
C -0.1505526184 1.0694310423 -0.1287204292
C -1.1670546920 -0.0122286882 0.2485491757
C -0.0103871763 -0.9033633855 0.7154857260
O 0.8492759563 -0.8664131972 -1.0265306124
C 0.9737425750 0.0602086836 0.0647436245
H -1.8036310261 -0.4465792135 -0.5203363804
H -1.7999149745 0.2899860158 1.0892490640
H 1.3117154270 -1.6767463314 -0.7721409909
H 1.9937275441 0.3023271612 0.3516858210
        
