12

        C -0.8602510693 0.9433108119 1.1775504474
N -0.1545496968 0.4201747490 0.2462701207
C 0.0372283570 0.4392762128 -1.1964629596
C 0.8851970420 -0.2755519518 -0.2198676517
C 2.2178739767 -0.2691511396 0.1984030869
N 3.3163624477 -0.3086240989 0.5488923209
H -0.5611655930 0.7997134655 2.2060825867
H -1.7476378953 -2.3340659951 -0.2841660021
H -1.7476932626 1.4950607254 0.9072328675
H 0.3059369540 1.4210995182 -1.5851948863
H -0.6750215055 -0.1293866564 -1.7881889699
H -1.0128887548 -2.2247666410 -0.1987249604
        
