13

        O -1.0415328297 1.7980478357 1.2802115070
C -1.2457222160 -0.6071246774 -0.5432411363
C -1.0285649140 -1.7697334003 -1.0675440310
C 0.1019037010 -1.1587937685 -0.3742214664
O 1.1835589203 -0.6634593090 -1.2062959712
C 1.7951765218 0.4306490205 -0.7962819883
O 1.5258267483 1.0821871391 0.1789401890
H -0.1467640946 1.5331106510 1.0233451509
H -1.8741718740 0.2323085823 -0.2984772555
H -1.3794548054 -2.6297651538 -1.6099522726
H -0.9472830951 2.6599506606 1.6854863032
H 0.5050204044 -1.5024906838 0.5735009473
H 2.6150785331 0.6823411037 -1.4822479759
        
