17

        C 1.2990895238 -0.3961748017 -0.4440847399
C 1.2352158331 -0.4132782807 1.0752982894
O 0.1529347737 0.4433521509 1.3747910876
C -0.8700875240 0.2150095250 0.4119442759
C -1.5863338479 1.5190121599 0.1414908109
C -0.1843819777 -0.4173290244 -0.8175717181
O -0.6953848162 -1.7339004146 -0.9594090483
H 1.8454204021 -1.2355329600 -0.8769496227
H -0.3089969529 -2.1296673195 -1.7425085026
H 1.7592590346 0.5336051122 -0.7858078946
H 1.0439975947 -1.4293681336 1.4455859298
H 2.1251321071 -0.0194596708 1.5659966370
H -1.5745306560 -0.5318481417 0.7985584107
H -2.4173832331 1.3600375077 -0.5482081012
H -1.9818243787 1.9320330212 1.0698200433
H -0.9016450148 2.2505135679 -0.2933331714
H -0.3881538676 0.1614247024 -1.7248766856
        
