12

        O -2.0291582578 0.1026229438 0.7808291538
C -1.7324426070 -0.8513601110 0.0991285517
C -1.0794759076 -0.7480031606 -1.2157691738
C 0.8987208821 1.4838315163 0.3340552595
N 1.3659568540 0.1378300785 0.5851617221
C 1.0345236007 -0.8319402938 -0.1021193821
O 0.2054350617 -0.7572837440 -1.2810405941
H -2.1009184249 -1.8777714729 0.3259017750
H 0.5641821152 1.6509808311 -0.6926122370
H 1.7016846255 2.1772620554 0.5771646209
H 0.0611283627 1.6784703936 1.0057229070
H 1.3781736954 -1.8496100363 0.0537413968
        
