9

        O 2.6528687898 -0.6892047900 1.2991195048
C 1.8007301871 -0.0610434294 0.8219990932
N 1.0451720956 0.7305399323 0.3145190020
C -0.3234404337 0.6832863570 -0.0657312515
C -0.9980880507 -0.6414639807 0.1967476886
O -0.4449892517 -1.5822120303 0.6868775876
H -0.4314685288 0.9069321455 -1.1332774500
H -0.8929880109 1.4584266731 0.4597870027
H -2.0642957966 -0.6847478774 -0.1012091774
        
