12

        O -2.0395701100 0.6998687700 -0.2499508987
C -1.6130745421 -0.5156798929 0.2853582154
C -0.1463723855 -0.6521957822 0.4873202642
N 0.6631910974 1.4268005107 -0.6854053518
O 2.1130320469 1.3397833669 -0.7952017196
C 2.1824513277 0.2531663029 -0.1051701659
C 0.7503878021 0.2326318760 0.0341530044
H -1.3774758976 1.0567286504 -0.8562869690
H -2.1200899262 -0.6510637367 1.2477807144
H -1.9277302825 -1.3695780157 -0.3401066067
H 3.0970377050 -0.2815714823 0.1074904462
H 0.2121651649 -1.5488665671 0.9817170673
        
