12

        C -1.5702254242 1.4210320000 -0.2607109986
C -0.6037716765 0.8175380224 0.7077431693
N 1.6120088468 -2.2138440939 -1.5345040643
C 1.6632332575 -1.6882450461 -0.3826214456
C 1.4875955249 -0.2785348187 -0.0535657508
N 0.4375987475 0.2064101811 0.3341261804
H -1.1941002620 1.3384594452 -1.2796499936
H -2.5397055502 0.9196279351 -0.2089767925
H -1.7342823182 2.4765679072 -0.0323692995
H -0.7777771310 0.8914250286 1.7764131202
H 1.3926604424 -1.5180021851 -2.2470024680
H 1.9312925431 -2.3187533760 0.4699453426
        
