17

        C 2.1426570603 1.0252216790 -0.3838791175
O 0.8162579437 0.7561493026 -0.0079194772
C 0.2926454572 -0.3826522938 -0.6298385965
C -0.1075625260 -1.4268635207 2.0680707574
O -1.1074963217 -1.1040483903 1.3315205115
C -1.0833313188 -0.6793455075 -0.0848356593
C -2.0388996059 0.4899893859 -0.1730351541
H 2.8084449040 0.1943165427 -0.1176789772
H 2.2237658021 1.2076962841 -1.4630709815
H 2.4585500394 1.9180523482 0.1525985489
H 0.1855345892 -0.2287782060 -1.7141240926
H 0.8286617482 -1.3437501067 1.4614490155
H 0.9628217831 -1.2436909666 -0.4975984153
H -1.4843219402 -1.5400857200 -0.6258633757
H -2.1873772141 0.7753644672 -1.2157814442
H -3.0032811316 0.2147746675 0.2524048098
H -1.6413722690 1.3466660342 0.3690876478
        
