7

        O 1.0813829869 -1.3701419710 0.2235551656
C 1.3564884149 -0.2755618128 -0.2037127001
N 0.4833890339 0.7856866795 -0.3886872758
N -0.7023692290 0.4904107301 -0.0518116856
C -1.7885646208 0.2729180347 0.2389451381
H 2.3721693928 0.0144648935 -0.5064049518
H -2.8024949786 0.0822234461 0.5007333097
        
