14

        O -1.1652958582 -1.0442884965 1.4367947534
C -0.8697370998 -0.3934760567 0.2721345905
C -0.2331499996 2.1646774026 0.0024137865
O 0.1885616001 0.6180233688 0.5217303474
C 1.3389602236 0.1032734542 -0.0525202980
N 1.2204095337 -0.9136897402 -0.7719805680
C -0.2041466292 -1.2472303410 -0.8104504072
H -0.4955964678 -1.7051604319 1.6350670644
H -1.7256227811 0.2019469193 -0.0292637433
H 0.5217717517 2.2691956268 -0.7956591526
H 0.1711644420 2.7048693251 0.8697908935
H 2.2407891217 0.6538514250 0.1783853141
H -0.5934735917 -1.0233776159 -1.8042101192
H -0.3580022455 -2.3104558397 -0.6214144616
        
