16

        C 2.2419192740 0.7696397811 -0.2219268529
C 0.7825798635 0.7921537558 0.2109138915
C -0.0782691866 -0.1766502203 -0.5923445370
C -1.5378553149 -0.1739799555 -0.1960109394
O -1.6791741956 -0.5767262914 1.1924426891
C -2.1615490271 -1.7136187688 1.5497178305
H 2.3490716807 1.0470092820 -1.2736659970
H 2.8408285530 1.4647125715 0.3681992318
H 2.6739455641 -0.2263429966 -0.0979692637
H 0.3793088385 1.8044491973 0.1015520540
H -0.0273602501 0.0749606557 -1.6572435177
H 0.3125707300 -1.1953851310 -0.4968419926
H -2.1295983386 -0.8650575570 -0.8031019934
H -1.9683157080 0.8273724629 -0.2559151398
H 0.7066983906 0.5462058707 1.2728122271
H -2.4487668736 -2.2599366566 0.6058373095
        
