17

        C 1.7476624935 0.0439572628 0.6629568220
C 0.5249295231 0.3424248331 -0.1575277420
C -0.3549157660 -0.8278673619 -0.4323170691
C -1.2651528310 -1.3571086952 0.6433820572
C -1.8400352559 -0.7081303251 -0.5807698439
C 0.2235424093 1.5457485547 -0.6373110095
O 0.9149709914 2.7033639555 -0.4704362978
H 1.4701979989 -0.2788430584 1.6699665598
H 2.4317006916 0.8893437780 0.7683098683
H 2.3197675621 -0.7711912806 0.2117910926
H 0.1096760833 -1.5961318292 -1.0452978028
H -1.3127219381 -0.7961582006 1.5685308183
H -1.3647693700 -2.4286729432 0.7574224640
H -2.3283154191 -1.3374880483 -1.3129452688
H -2.2923164736 0.2672606727 -0.4606329380
H -0.6581969682 1.7084650807 -1.2441007214
H 1.6900512688 2.5410886051 0.0725240111
        
