14

        C -1.7491102234 -0.2494967904 0.3293838757
C -0.4013225992 -0.9477355104 0.5119749983
C 0.2776030421 -1.1585737145 -0.8084542452
O 1.3591356532 -0.7286353721 -1.1134836191
C 1.8319778920 1.8558480467 -0.0944916010
O 0.8322450189 2.1952988311 0.4741696152
H -2.2757649065 -0.1847623291 1.2811672851
H -1.6081055709 0.7645830284 -0.0462773871
H -2.3891967510 -0.7934508339 -0.3692762549
H 0.2543192462 -0.3750700597 1.1672156545
H -0.5549407324 -1.9389736016 0.9539179197
H -0.3027734612 -1.7580844250 -1.5430225560
H 2.6646677951 1.3556865683 0.4312091089
H 1.9792695971 2.0294181620 -1.1751397940
        
