16

        C -2.5266682620 -1.1411499988 0.1605184587
C -1.5428979292 -0.0255422032 -0.1215439457
O -0.5951093366 0.1602868080 0.9143491982
C 2.4157436327 0.8178431435 -0.8481509604
C 2.5033835398 1.3061121942 0.3798312181
O 0.2337019303 -0.9945882433 0.9589319350
H -2.0115728501 -2.0988509459 0.2284040702
H -3.2632064643 -1.2031322027 -0.6432791001
H -3.0513862285 -0.9609384759 1.0997228122
H -2.0467451544 0.9435098718 -0.1701102991
H -1.0206517888 -0.1889788960 -1.0719365070
H 1.4959427804 0.8861380890 -1.4190851675
H 3.2590477355 0.3410308282 -1.3346437688
H 1.6546464941 1.7794184168 0.8606705560
H 3.4240812035 1.2469849065 0.9490360382
H 1.0674156974 -0.6334892922 0.6220484621
        
