12

        O -1.7095708214 1.6754669340 -0.5746758985
C -1.4147215987 0.4621865627 -0.1826024441
C -0.1041697853 0.0864863076 -0.7948556962
C 0.6619398667 -0.9540814294 0.0192815588
C 1.1256329808 -0.3989132596 1.3387460853
O 2.2334629774 -0.5233434273 1.7817841137
H -2.5748351093 1.9073472176 -0.2201465557
H -0.0135687551 -1.7860583894 0.2461553560
H -0.4107638539 -0.3727459327 -1.7463048550
H 0.5126564881 0.9560037035 -1.0516185838
H 1.5241649221 -1.3453958695 -0.5207595479
H 0.3475826887 0.1541135824 1.9094704671
        
