14

        O 0.8645509866 0.6008202969 1.0549970148
C 1.6499060729 -0.2778388274 0.8311998481
C -1.2246554709 -0.3187194507 -2.2438542982
C -1.4974215290 0.1387760529 -1.0297914655
C -1.4549034953 -0.7480170259 0.1590633538
O -1.0126761228 -1.8708909000 0.1462650093
H 2.3279693749 2.5640510151 1.9128900929
H 1.3233895774 -1.2527623000 0.4268239623
H 2.7303670880 -0.1431932925 1.0223109295
H -0.9608181771 -1.3606590707 -2.3879060999
H -1.2614806353 0.3203274348 -3.1172085540
H 2.8709068684 3.0453737794 2.0878393150
H -1.7732314592 1.1733305082 -0.8577134802
H -1.8731600787 -0.3220582200 1.0883433722
        
