14

        C 2.5163076098 0.3960809267 -0.1548575810
C -0.7764302488 0.3874817079 1.0483089812
C -0.9273771794 -1.0581422673 0.6246776110
C -1.9674807150 -0.6034229367 -0.3964325410
O -2.9508622371 -1.0869227121 -0.8632490460
C -1.4410963837 0.8217049802 -0.2409569095
H 2.0204444060 0.4265943880 -1.1255073836
H 3.4324104904 0.9818353820 -0.2052604796
H 2.7628017205 -0.6351394182 0.0955883163
H 1.8640981799 0.8120285320 0.6139867261
H -1.1441856879 -1.8234731482 1.3694635863
H 0.0222529460 -1.3176522499 0.1352565965
H -2.1037545045 1.6868353928 -0.2453637511
H -0.6188583961 1.0202074230 -0.9427071253
        
