19

        C 2.8860380903 0.2867662367 0.1242416362
C 1.5427337688 0.5230453469 -0.4908832362
C 0.4335123444 0.8078887885 0.1814155779
C -0.9122203201 1.0561346396 -0.4340840578
C -2.0053711134 0.0839992559 0.0236165176
C -1.7700909887 -1.3623929379 -0.3922274978
O -0.7366424003 -2.0019875727 0.3291074958
H 3.6117863225 1.0251095004 -0.2262499734
H 2.8405166902 0.3447859127 1.2126937088
H 3.2770442598 -0.6963908299 -0.1503096174
H 1.4892114574 0.4598813264 -1.5769356810
H 0.0738447960 -1.5039364113 0.1896258260
H 0.4824683557 0.8710614341 1.2684275389
H -1.2271937905 2.0743376658 -0.1824199181
H -0.8246859776 1.0176758273 -1.5248415613
H -2.9605530168 0.4128339497 -0.3974027050
H -2.1103356987 0.1206674683 1.1125998596
H -2.6703318738 -1.9504690214 -0.2036249232
H -1.5748249051 -1.4081185790 -1.4739499897
        
