15

        O 3.1035246379 -0.4299678676 -0.3670837553
C 2.0922725739 0.1474346192 -0.3625169959
N 0.5067702060 -1.3643226852 1.6267624315
C -0.5631274607 -1.3769590702 0.9569586326
C -1.0533366165 -0.1582854909 0.2333456552
C -0.0975049191 1.0239665970 0.2848548450
N 1.0946994539 0.8024329400 -0.4978092592
H 0.6939544259 -2.2666132497 2.0555015619
H -0.7531467230 1.4740647069 -3.2690282140
H -1.1966380671 -2.2676046369 0.8669355150
H -2.0139366924 0.1345879995 0.6721937506
H -1.2683636189 -0.4240826708 -0.8065587954
H 0.1746346564 1.2377212182 1.3202388616
H -0.5933845289 1.9041947810 -0.1239570212
H -0.2103063274 1.3152758096 -2.7819272127
        
