12

        C -1.8824841502 0.0645569951 0.2014378732
C -0.5653318508 0.1488185122 0.0573286590
C 0.4140339950 -0.9338478777 -0.3256387653
N 1.6160209891 -0.1547076238 -0.6342293871
N 1.5026002396 1.1132303805 -0.1222758581
C 0.2888305347 1.3263896464 0.2197791884
H -2.4681320638 0.9315662946 0.4807990717
H 0.0884168940 -1.5172476004 -1.1874859145
H -2.4162922731 -0.8652638345 0.0483344502
H 0.5810501437 -1.6181061186 0.5149205171
H 2.5081216724 -0.5619518340 -0.4068210753
H -0.0235031307 2.2985850600 0.5746852404
        
