14

        C -1.7193475813 0.2439209721 0.0901920596
C -0.2349821205 0.4027083993 0.0350155570
C 0.6748163181 -0.4338963810 0.9397219867
C 1.4352690003 -0.8101537111 -0.3289517817
C 0.5122011819 1.4721483045 -0.6400726618
O 0.4681244473 -0.1254137820 -1.1949067843
H -2.0935602389 0.8091473178 0.9475168278
H -2.0144900698 -0.7994069765 0.2191848635
H -2.1831005150 0.6446372627 -0.8108250840
H 1.2250679560 0.1473652662 1.6750387888
H 0.1760707888 -1.2801101690 1.4115070140
H 2.4151371085 -0.3572069539 -0.4562192610
H 1.4416204712 -1.8678799835 -0.5883030287
H -0.1849227465 1.8881394345 -1.3845534956
        
