16

        C 1.4312961231 1.7201722690 0.2003091577
C 0.3682769810 1.0782260738 -0.5943828357
N 1.6793293359 0.3729048002 -0.4504685506
C 1.0199627290 -0.8250594523 0.1551503088
C -0.3274544283 -0.1292958370 0.0329843671
C -1.4738511206 -0.1152251057 0.9768691408
C -1.6146226497 -0.7500140700 -0.3843648918
H 1.3018142995 1.5307422752 1.2714293182
H 2.3622999046 0.2914501986 -1.1865957433
H 0.0484897578 1.4594247015 -1.5612689626
H 1.4060449894 -1.0337529619 1.1534382241
H 1.1185642294 -1.7039793493 -0.4837500135
H -1.9682999761 0.8317858424 1.1536029284
H -1.4348752168 -0.7702278920 1.8384392076
H -1.6781021976 -1.8301707660 -0.4405016517
H -2.2049807605 -0.2268917266 -1.1270700034
        
