19

        C -1.7267295491 0.5183764726 -1.4381419814
C -1.7228042396 1.3890541608 -0.1894434341
C 0.0510452233 -1.5788170340 1.6649767560
C 1.2374812062 -1.1141395292 1.3087443834
C 1.6386395687 -0.8098666696 -0.1033669788
C 2.0466581140 0.6316121004 -0.2918935367
O 1.7721188820 1.2912079416 -1.2547064047
H -2.4873055408 0.8459619834 -2.1495799110
H -0.7611781126 0.5583011997 -1.9456163404
H -1.9390147235 -0.5263486668 -1.1962183000
H -0.9756246531 1.0494215888 0.5313035173
H -2.6921090187 1.3732585464 0.3132788839
H -0.7240219903 -1.7760240760 0.9319417693
H -0.1872796559 -1.7819842745 2.7016001900
H 1.9870535231 -0.9274019810 2.0744611354
H 0.8495331839 -1.0496131815 -0.8167512090
H 2.5204721161 -1.4085569258 -0.3686791823
H 2.6505494266 1.0664599633 0.5332588038
H -1.4911607602 2.4269373812 -0.4346991605
        
