14

        C -0.8244019493 -0.9982350634 -0.0798329620
C -0.5780037046 0.3603740500 -0.7545651974
O -0.9653251098 1.4616006317 0.0498933713
C 0.1598221524 1.4584953490 1.0406359795
C 0.0358830058 0.3136311510 1.8837183856
N 0.2764235128 -0.5961123299 0.8824876566
C 0.7808714690 0.3747074563 -0.0260398643
H -1.7695771232 -1.2094090032 0.4115270244
H -0.4959101704 -1.8356128738 -0.6933376863
H -0.7618406133 0.5222546559 -1.8141461533
H 0.4299067372 2.4709210783 1.3140155101
H 1.5436171565 -1.4496139967 -2.8837350887
H 0.0288221680 0.1067154313 2.9447344530
H 1.7036504691 -0.9595155363 -2.3435204285
        
