12

        O -1.4524022498 -0.7667572541 -0.8636609220
C -0.8766536376 0.7561237534 -0.9304331316
C 0.0249670487 0.7399520671 0.2622625950
O -0.6494291369 0.1370895539 1.4106814412
C 1.2714786062 -0.0089974551 0.0312695335
C 2.2625936972 -0.6632749676 -0.1313833978
H -1.3815272471 -1.0069859707 0.0865428122
H -1.7983570163 1.2689817521 -0.6375608483
H -0.8232827066 -1.2912172013 -1.3701444570
H 0.2633773500 1.7867271246 0.4792983495
H 0.0020849900 -0.1093407678 2.0724474446
H 3.1556043021 -1.2209706346 -0.2890074192
        
