15

        C 2.0764566476 0.5169847546 0.6228759831
C 0.8240961721 -0.2735154332 0.6529167905
C 0.3377603227 -1.1797004865 -0.2648228720
C -1.0525613120 -1.6133246957 0.2865615549
C -0.9183664765 -0.1974983687 0.4794488794
O -0.1338305390 0.1180424610 1.6079847812
C -1.5746376019 0.9166676704 -0.2511060844
H 1.8637196172 1.5576420846 0.3662019002
H 2.7534762707 0.0948840744 -0.1166914945
H 2.5412131540 0.5099043779 1.6108837642
H -1.0243596464 -2.2145312299 1.1910364109
H -1.7330653846 -1.9702388948 -0.4759651224
H -2.4687417500 1.2247541430 0.2966052420
H -0.9093908071 1.7761640817 -0.3339775620
H -1.8725906671 0.5903844609 -1.2460161709
        
