15

        O 1.2595267007 -1.8869596082 1.3158338630
C 0.7953972194 -1.3128070485 0.3706946268
C -0.6642802253 -0.9346530847 0.2500472590
C -0.9067135700 0.4169149776 -0.3994474460
C -0.4922015971 1.5925760244 0.4729747160
C 1.4561937716 -0.1628815387 -1.8040352640
C 1.6660930972 -0.9650067373 -0.8076219208
H -1.1295256751 -1.7277255381 -0.3452409813
H -1.0907314612 -0.9857199029 1.2526951840
H -0.3713978334 0.4644352555 -1.3671907443
H -1.9608818623 0.4973585174 -0.6742208480
H -0.6555593210 2.5404095725 -0.0406086183
H -1.0655201216 1.6077774312 1.4023936982
H 0.5667084779 1.5391907015 0.7363501476
H 2.6643834000 -1.4074010218 -0.8320526720
        
