10

        O -1.4973841868 -0.8088698810 0.2342202514
C -0.5955673009 -0.1535369974 -0.4195298453
C -0.0699484702 1.2851039586 0.0767403130
O 1.2614716464 0.6572478368 0.4109503566
C 0.7935149298 -0.4928779687 0.0920102573
O 1.3404291361 -1.5775920563 0.4903093418
H 0.7071814779 -2.2921890259 0.3001473424
H -0.6251236866 -0.1378596388 -1.5358633220
H -0.5294119686 1.5904115321 1.0116387364
H 0.0876704230 2.0945542404 -0.6318144314
        
