14

        C 1.8215907635 0.5622002660 -0.0324045201
C 0.3937561063 0.2163452168 0.2059276475
C -0.2831149661 -1.1545018653 0.1115415114
C -1.6172407014 -0.4249661657 -0.2283770487
C -0.8673737917 0.8965578501 -0.1043120592
O -0.3164604613 0.9384662129 1.2073966159
H 2.1677626400 0.1414713990 -0.9779785887
H 1.9496878528 1.6444751935 -0.0600895846
H 2.4489824828 0.1623274217 0.7676061030
H 0.0851107303 -1.7577154718 -0.7187140583
H -0.2577111670 -1.7394880115 1.0311325814
H -2.4429132498 -0.5522659009 0.4716520875
H -1.9586013417 -0.6316931669 -1.2425912789
H -1.0612758965 1.8461610222 -0.5875134083
        
