15

        O 2.5863767886 -0.7271578003 1.4137898573
C 1.4762472336 -0.3251679775 0.7523542199
C -1.2652794230 1.8105186550 -0.9040467069
C -1.0983771540 0.6974892096 -0.2018811397
O -1.4999323258 0.6464318657 1.0998846270
C -0.5192696698 -0.5767528784 -0.7500354423
C 0.6877914215 -1.0849135218 -0.0000978734
H 2.7490557422 -1.6576551275 1.2366049822
H 1.2901624367 0.7321338145 0.9091677188
H -1.7062308242 2.6899415042 -0.4547328047
H -0.9731710487 1.8469315091 -1.9432139656
H -1.1268962536 -0.1378641706 1.5118960533
H -1.3015477620 -1.3438978150 -0.7186048189
H -0.2800178474 -0.4281284261 -1.8053737272
H 0.9309066861 -2.1375668409 -0.1261069797
        
