11

        C -1.3704114364 0.1520157891 -0.3560387775
C 0.0001704816 -0.2037777010 -0.8432852110
O 0.2551807700 -0.4974789502 -1.9831577816
O 0.1085255356 0.4217387143 2.0856547344
C 1.0584341663 0.0994728265 1.4256419903
N 1.0565635864 -0.1980311930 0.0829047482
H -1.6840801454 -0.5326347238 0.4317901920
H -1.3754392739 1.1492284798 0.0832020571
H -2.0497439269 0.1001264076 -1.2026321922
H 2.0726082617 0.0070591257 1.8522955308
H 1.9404889809 -0.4526137749 -0.3320092905
        
