15

        C -2.8090575964 0.1358255001 0.6751339105
C -2.2240263024 -0.5619345058 -0.5454379467
C -0.7534714420 -0.5918567874 -0.7762379159
O -0.1709630249 0.0460203143 0.2388322987
C 1.1493845743 0.1300843795 0.2326555484
C 2.3327846362 0.2532171276 0.3108215027
C 3.7836285575 0.3836779992 0.3790390840
H -2.4308374290 -0.2983039629 1.6013009900
H -3.8960740879 0.0460899558 0.6791943940
H -2.5585314220 1.1973717473 0.6840714762
H -2.6297345178 -0.1613640865 -1.4838459230
H -2.5124948538 -1.6210598487 -0.5923100824
H 4.0672169133 1.3789161301 0.7236837712
H 4.2053876747 -0.3489245860 1.0684020292
H 4.2290713201 0.2238486232 -0.6036101366
        
