13

        C 0.3391217689 -0.9702600349 -0.1319050034
C 1.4576179386 -0.1144862649 -0.5939612621
C 1.1926937216 1.2004199872 -0.4124842218
C -0.1474205788 1.4147152213 0.0675105636
N -1.9872984100 -0.2828772315 0.4974491905
C -0.5775178886 0.0675491450 0.5516239323
H 0.6637285236 -1.8114485861 0.4859977479
H -0.1953945173 -1.4035648474 -0.9832738761
H 2.3628102097 -0.5171655222 -1.0404886530
H 1.8668521759 1.9986628922 -0.6997431131
H -2.5139214414 0.3965857840 1.0327744417
H -2.3170093460 -0.1892295515 -0.4564724224
H -0.2837311559 0.1097800088 1.6146346760
        
