14

        O 0.2605821848 -2.6458849771 -0.0526997613
C -0.2057250791 -1.6271509687 -0.4782296372
C -1.2297734040 1.0936692703 0.3892682997
N -0.3564914329 0.7957006175 -0.7394682164
C 0.5455337388 -0.3059561774 -0.5285624150
C 1.5400702348 -0.1679442720 0.6238749736
O 1.8332517694 0.8960202556 1.0928116916
H -1.8426792777 0.2189591635 0.6214332982
H -1.2256705312 -1.5821071677 -0.9089776011
H -0.6987286031 1.3930774184 1.2989468831
H -1.9118747606 1.8946379190 0.1054879737
H 0.1648218453 1.6205147570 -0.9991223978
H 1.1804514352 -0.4087407175 -1.4227759259
H 1.9922308802 -1.1101031210 0.9836338349
        
