10

        O -1.7841789861 -0.7027699150 0.1835830902
C -0.7209989032 -0.0177728950 -0.3857788553
C -0.4655725981 1.3516617643 0.2335411776
N 0.8460649285 1.3954330936 0.5430054080
C 1.3847893073 0.1927796173 0.2829285147
N 0.5613586855 -0.7075664906 -0.1903210419
H -2.2050180230 -0.0879496261 0.7948511376
H -0.8617774253 0.1077196692 -1.4694798309
H 2.4316499257 -0.0364660299 0.4610353244
H 0.8042710886 -1.6397571881 -0.4782609241
        
