13

        C 1.7479289319 0.5333172566 -0.3695371269
C 0.6994345870 -0.0516395716 0.5304307074
N -0.6129267414 0.1856577743 0.0649763589
C -1.4628770628 -0.7546640284 0.0924458116
C -2.8932036116 -0.4154591400 -0.2562106163
O -2.9075858514 0.5956201902 -1.0530473652
N 0.8649201865 -0.6621509450 1.6243981090
H 1.5875589913 1.6077111648 -0.4708239612
H 1.6703006965 0.0979162125 -1.3679997898
H 2.7480439860 0.3519401744 0.0202850292
H -1.2217150208 -1.7608393491 0.4370369765
H -1.9897077399 0.9355519660 -1.2038661767
H 1.8521356486 -0.7310457044 1.8552670435
        
