13

        C -1.0461502101 0.1659463952 1.3804760327
C -0.5434217360 -0.4447677880 0.0953284548
O -1.0272687659 0.3804167720 -1.0415397325
C -0.1447265329 0.7668456660 -1.9017217527
C 1.1844657491 0.2670084443 -1.3741381993
O 1.4698783545 0.8632010984 -0.1044519314
C 0.9391119214 -0.4444486237 -0.1179010690
H -2.1304405987 0.2703757441 1.3492660630
H -0.7866338708 -0.4756806135 2.2239095133
H -0.9623968877 -1.4404405930 -0.0658520094
H -0.5991973919 1.1479762071 1.5314969712
H 2.0325537266 0.1085000451 -2.0273384647
H 1.5719512424 -1.2413537538 0.2538761238
        
