9

        N 0.5006739962 -0.8787163090 -0.6593347239
C 1.4007077309 0.0808641168 -0.4907727833
C 0.2387158517 0.9866042815 0.0448361962
C -0.6769705472 -0.1465057113 -0.1821775622
N -0.4483869015 0.3153247700 1.1530471426
H 0.1046749450 2.0483534565 -0.0890490024
H -1.6673744165 -0.2441441510 -0.6049336023
H 0.6449825979 -1.8518155585 -0.8807983923
H 0.1573537436 -0.2952728950 1.6921587275
        
