10

        N 1.5469039739 -0.1300735830 0.5011983211
C 0.1908248784 0.1349234814 0.2203430662
C -0.2473620521 1.5060019371 -0.0552490047
O -1.3740054126 1.8178316541 -0.3541180073
C -1.6435022823 -1.5054734980 0.4941985990
N -0.7172940576 -0.7768096999 0.2637793424
H 2.0949205760 -0.3747202698 -0.3111924128
H 1.6730533697 -0.8252027069 1.2214068456
H 0.5667224669 2.2489468261 0.0407595241
H -2.1166914604 -2.1154951410 -0.2719792737
        
