16

        C 2.2567003207 -1.4110042839 -0.5723859982
O 2.2798757659 -0.1407678944 0.0329721347
C -0.8956003840 1.1439778556 0.0350186752
C -0.9325895840 0.3575241797 1.3102136928
C -1.9155344295 0.6088554871 -0.9701423153
O 0.0089308662 -0.2031103609 1.8118187374
H 2.6326778303 -2.1945709800 0.0956123282
H 1.2490210026 -1.6960769011 -0.9019741396
H 2.9012423247 -1.3722124460 -1.4510044066
H 0.1178798005 1.1270775819 -0.3681753633
H -1.1451761032 2.1794460632 0.2936250339
H -1.9248196373 0.2978632670 1.8042321920
H -2.9260758417 0.6079788218 -0.5553776551
H -1.6715526523 -0.4121942230 -1.2682155406
H -1.9245690981 1.2257023867 -1.8683465815
H 1.6693278193 -0.1571075534 0.7821032060
        
