19

        C 1.8675286877 1.1616916519 -0.6285057102
C 0.7321377500 0.1842650281 -0.5365943190
C 1.1090125693 -1.1832222430 -0.0474701662
C -0.5061443256 0.5381079320 -0.8755470123
C -1.7200030940 -0.3580764486 -0.8135807512
C -2.2378777866 -0.4120056309 0.6014636626
O -2.2708273809 -1.4046819801 1.2766125669
H 1.5358666898 2.1370220217 -0.9843529527
H 2.3411942788 1.2924324814 0.3487516619
H 2.6413186200 0.7922539885 -1.3075545322
H 0.2297246098 0.8745319506 2.7458560587
H 1.5968976425 -1.1100279030 0.9282563685
H 1.8317911770 -1.6437963369 -0.7272036171
H 0.2580684067 -1.8527165070 0.0602820786
H -0.6762177779 1.5597172532 -1.2017728241
H -2.5084324978 0.0518688669 -1.4508319467
H -1.5091965534 -1.3747034759 -1.1454019241
H -2.5708190098 0.5616691790 1.0179548712
H -0.1280070058 0.2208881722 2.7649524873
        
