11

        O 0.8418796799 1.9155344862 -0.5574205531
C -1.3357767521 -0.2735863208 0.2082147443
C -0.8763767707 -1.4734831099 -0.5683208260
C -0.2131550664 -0.7853834263 0.5890433367
C 1.8903540666 1.7982485930 0.1811061448
N 2.8394001945 1.7180911377 0.8281402262
H 0.2233205170 1.1836303567 -0.3530475921
H -2.1272903988 0.4406281066 0.3595597264
H -1.3652803763 -2.4302880683 -0.4004272664
H -0.4768181076 -1.3499223350 -1.5721011949
H 0.6185360137 -0.7990524197 1.2739992540
        
