17

        C 2.2547681316 0.0499364238 0.1117840627
C 0.8159207432 -0.1693945698 -0.2194255892
C -0.0145830100 -1.2155190490 0.3989051149
C -1.2536090730 -1.1627243264 -0.1051396962
C -1.3314955909 -0.0596128192 -1.1138777071
C 0.0541655498 0.5064825771 -1.0944774091
O -1.2255167069 1.6780585510 1.7941554404
H 2.3829053784 0.2609065188 1.1764346773
H 2.6694635696 0.8838317114 -0.4541412056
H 2.8449222554 -0.8421381369 -0.1123792029
H 0.3428036180 -1.9153497055 1.1441400130
H -0.5610550466 1.7494020242 1.1030074571
H -2.0819781939 -1.8088206919 0.1511263270
H -1.6075897229 -0.4383419017 -2.1045228034
H -2.0893495008 0.6852015109 -0.8456388760
H 0.3775090242 1.3322993415 -1.7143397313
H -1.3691034250 0.7309675416 1.8648541282
        
