15

        C -1.6149308702 -0.5847544483 -0.0916243690
C -0.4239588129 0.3094148744 0.1810926809
C 0.6266197484 -0.0980895202 1.2489101752
C 1.7643800920 0.3014168055 0.2746903835
C 0.7246079050 0.3223627423 -0.8230542523
N 0.8403268618 0.2179844673 -2.0699534051
H -2.2953238407 -0.6016474038 0.7619399498
H -2.1818423247 -0.2367318162 -0.9582876888
H -1.2943858787 -1.6099380855 -0.2905773693
H -0.7493343294 1.3400356490 0.3585882135
H -0.0756775265 0.1865895776 -2.5179033441
H 0.5845815940 0.4272254835 2.2014769978
H 0.6095998934 -1.1731320600 1.4340841905
H 2.5945458964 -0.3897790120 0.1364331579
H 2.1610675922 1.2991027466 0.4733876793
        
