13

        C -1.1625261736 -0.7715122600 0.1260063857
C -0.0891516384 0.2954185889 0.2445451949
O 0.9680767669 0.0457197045 -0.6991437606
C 1.9203649923 -0.8063263192 -0.3137331371
O 1.9689043845 -1.3747248680 0.7367296929
C -0.3314988350 2.5524017436 -0.9580264084
C -0.6086680224 1.6668004980 -0.0586033347
H -1.5693024862 -0.7867530084 -0.8852748762
H -1.9733700444 -0.5647069544 0.8258351799
H -0.7429503333 -1.7478099237 0.3667424642
H 0.3415157303 0.2831175501 1.2478912678
H 2.6613608944 -0.9065567339 -1.1172397298
H -1.4099132349 2.0878089826 0.5620970614
        
