14

        C 2.9995525305 -0.8956780061 0.3957826431
C 1.9549167160 -0.0953277315 0.5354364575
O 1.4810968498 0.6742470276 -0.4758523132
C -2.1876254560 1.0904572212 0.1878172540
O -1.1705004553 1.3831455450 0.6625307105
C -3.3327861703 0.7640987149 -0.3401392170
H 3.3372685868 -1.4867947922 1.2341437297
H 3.5304873770 -0.9679979706 -0.5446115800
H -0.2566143746 -1.3190505021 -1.0757495782
H 1.4153936989 -0.0164428206 1.4760938871
H 0.7057666067 1.1545040487 -0.1724880053
H -0.8945325841 -1.7060733587 -1.0754821049
H -4.0342730080 1.5394946298 -0.6060772120
H -3.5557483175 -0.2782150052 -0.5089246713
        
