12

        C -1.4734239302 -0.7225353755 -0.1088798367
C -0.0796976632 -0.3143946959 0.1949566315
C 0.6056882918 1.0450812453 0.2481226720
O 0.1348039252 2.2286401620 0.5902643648
N 1.7869959839 0.6861731044 -0.0883654085
C 1.2523852100 -0.7082680715 -0.2115860589
O 0.7622924300 -1.1198756685 1.0482349483
H -1.5134053448 -1.7951975656 -0.2955453240
H -2.1329409098 -0.4907748938 0.7291542246
H -1.8411527863 -0.1950483156 -0.9897328579
H 0.8601298750 2.8654075953 0.5502405243
H 1.6331729181 -1.4364205208 -0.9120668798
        
