9

        N -0.9089723299 -0.4588658583 -0.1646095189
C -0.3714008188 0.8929187831 -0.0408057759
C 1.0776719716 0.7238876798 0.1996147695
C 1.1817030330 -0.6729558514 0.1827239464
N 0.0184345305 -1.3285428146 -0.0288245011
H -1.8530641310 -0.7669302950 -0.3301550223
H -0.8548719409 1.4204651605 0.7873637768
H -0.5593975240 1.4638764313 -0.9555252753
H 2.0650862095 -1.2800762356 0.3163996008
        
