14

        C -1.8230907711 -0.3505120105 -0.0906329151
C -0.4248209541 -0.6071169673 0.3735574278
C 0.0974317026 -0.0650790701 1.4617611555
O 1.3792870909 -0.3187171275 1.8559980978
C 1.9972788843 1.5616029602 -0.9219862670
O 2.2728510339 2.2661653883 -0.0907257882
H -1.8329453711 0.0868248080 -1.0924568286
H -2.3467223001 0.3350822716 0.5784870000
H -2.4017042585 -1.2764788537 -0.1394964797
H 0.5898726659 -0.4761498850 -2.7831533357
H 0.1975347489 -1.2737170566 -0.2159222246
H -0.4712138376 0.6122411535 2.0949984374
H 1.5877034629 0.2034995219 2.6300828607
H 0.3880849030 -0.9775961325 -3.2964181402
        
