16

        C 1.9584196208 0.1886386621 0.1331806747
C 0.8237888886 0.2671504149 -0.8898389942
C -0.4999209761 -0.1928518180 -0.3350456985
C -0.9699728520 -1.4179204226 -0.5254992424
O -2.3680017769 0.3710441049 1.1700788232
C -1.2480695899 0.8442197481 0.4635047692
H 2.1141574544 -0.8427946013 0.4540281420
H 1.7434706971 0.7856959511 1.0218391693
H 2.8931315672 0.5575622548 -0.2927172770
H 1.0784111690 -0.3398495220 -1.7610728692
H 0.7280963177 1.2986581891 -1.2463144672
H -2.0729866108 -0.3081587208 1.7805916083
H -0.4178644672 -2.1426522560 -1.1128677926
H -1.9247018380 -1.7300085885 -0.1206226516
H -0.5452343907 1.3541019344 1.1378756575
H -1.6240382131 1.6095006698 -0.2223628513
        
