16

        C -2.5302507328 -0.4811647531 -0.4071556927
C -1.8527488037 -0.0672410278 0.8576466302
O -0.9278083635 -0.6487193900 1.3646917215
C 1.8241816536 0.7076997592 0.2988624910
C 3.1155404213 0.9560809819 0.1291733239
C 0.8136949904 1.3432425880 -0.4932504383
N -0.0200249192 1.8362540496 -1.1116745025
H -2.3765238494 0.3077181950 -1.1485481359
H -3.6066256306 -0.5662712762 -0.2390665240
H -2.1273518099 -1.4215433012 -0.7782275690
H -2.2506544394 0.8532995977 1.3300422452
H 0.4283375212 -2.2917420180 -0.1763856072
H 1.4523320766 0.0104373482 1.0408402028
H 3.8546987390 0.4572762673 0.7421861526
H 3.4678283367 1.6553148648 -0.6185560495
H 0.8577588096 -2.6848358857 -0.6436002482
        
