13

        O 2.9092584824 0.8611047735 -1.0894412714
C 2.3985778033 0.1464225362 0.0154623128
C 0.9464173741 -0.0372344997 -0.0322769146
C -0.2476467267 -0.1410943053 -0.0739789352
C -2.4848279700 -0.5023745914 1.0573356975
C -1.6817438390 -0.2887301155 -0.1495263652
O -2.4758543199 0.7506125162 0.4065251017
H 2.4055759023 1.6723559994 -1.1833331243
H 2.6610503638 0.6341577597 0.9622725962
H 2.8913189872 -0.8271124919 0.0044960612
H -1.9818129265 -0.5312613100 2.0189372370
H -3.4114593880 -1.0640705641 0.9835181573
H -2.0570227428 -0.6798507070 -1.0909625529
        
