14

        C -0.6977650815 -1.3555987448 0.3523239980
C -0.2004338652 -0.0195009388 0.8290914886
C -0.9014637433 0.7952092991 1.6141992334
O 0.0087182123 0.3040591270 -2.6790964474
C 1.1108004831 0.3655052060 0.3818454054
C 2.2045272276 0.6562555996 -0.0189741638
H -0.0113305292 -2.1487136381 0.6550979803
H -0.7567040548 -1.3687559790 -0.7382719894
H -1.6841004102 -1.5674449862 0.7638586866
H -0.5445774833 1.0727708438 -2.5325063623
H -1.8899481463 0.5153651274 1.9577965338
H -0.5077129660 1.7512125232 1.9338765780
H 0.7001564409 0.3707777626 -2.0126777152
H 3.1808649159 0.9191607984 -0.3527892261
        
