12

        N 2.0971077992 0.1142796464 -0.1886358838
C 1.0226077784 0.4225894039 0.5962259275
O 0.7903321954 1.5493751104 0.9980588940
C 0.1934716728 -0.7396810993 0.9858732182
C -1.5922522413 0.0960945728 -0.5518372739
N -0.9722017374 -0.7967328789 0.4298393040
H 2.7929685830 0.8324312182 -0.3008054768
H 2.4096487972 -0.8403201900 -0.2177797691
H -0.8796772228 0.8560988090 -0.8589485796
H -1.9143032145 -0.4827260252 -1.4182048262
H -2.4584090012 0.5861416605 -0.1063774685
H -1.5741554088 -1.5519872279 0.7298949341
        
