14

        C -2.6187961960 -0.2485292860 0.4837073113
C -0.3787654265 0.0431336054 -0.5376192569
C -1.5732576316 -0.4589404890 -0.5726922260
O 1.8031377050 -1.2820477784 0.7240565397
C 1.9437186351 -0.2137538284 0.1718238015
N 3.1479232056 0.4197116241 0.1058287219
C 0.8305201400 0.5321795705 -0.4899986100
H -2.2465324355 0.3857623558 1.2864892595
H -2.9205574348 -1.2066913673 0.9113989410
H -3.5098098427 0.2153450085 0.0551395285
H -1.8274793409 -1.0883578029 -1.4217585490
H 3.9456273323 -0.0355697325 0.5104963374
H 3.2720675229 1.2841796396 -0.3843878324
H 1.0366377672 1.5001184807 -0.9375219665
        
