13

        O -2.0753499249 -0.2199762154 0.4165183620
C -0.8912770669 -0.8473310703 -0.0740336326
C 0.3022580089 0.0834508978 -0.0955097858
C 0.1821889158 1.3911248757 -0.3753540520
O -0.9627212449 2.0339873121 -0.6296904745
C 1.5903663496 -0.4787142465 0.1405927112
C 2.6560988993 -0.9944873624 0.3408134570
H -1.9593979718 -0.0518365612 1.3550665085
H -0.6549959860 -1.7385381033 0.5124742831
H -1.1404004450 -1.1762493908 -1.0858268296
H -1.6989008650 1.4274890506 -0.4405140786
H 1.0487607878 2.0403964102 -0.4153346817
H 3.6068085428 -1.4397685966 0.5138802131
        
