14

        C -0.6895472580 -1.1414255572 0.1118853220
C -0.2068556626 0.2776489700 0.0082255495
C -1.0122141727 1.3388372162 -0.0997775423
O -2.3531355502 1.3470939315 -0.1464521482
C 1.2503120218 0.5891526574 0.0229995749
O 1.6955300272 1.7213305064 -0.0047352930
N 2.0845810170 -0.4888588265 0.0866627274
H -0.2881018792 -1.6339382511 1.0010525659
H -1.7761796662 -1.2134545099 0.1950117995
H -0.4089026793 -1.7368694241 -0.7620421694
H -2.6953430321 0.4497868475 -0.1012715242
H -0.5892469038 2.3335241690 -0.1591547954
H 1.7619650745 -1.4310818733 -0.0172415437
H 3.0699566638 -0.3060908560 0.0254054770
        
