14

        C -0.8899323651 -1.4970855928 0.3415102719
C -1.1409235125 -0.1358706228 -0.3095780182
C -1.2537930370 0.9349788563 0.7354657004
O -0.4913000748 1.8553533713 0.8699531638
C 2.3669365396 1.0902817555 -0.4879598570
C 3.2536867871 0.4899897676 -1.0207746375
H 0.0769853997 -1.5111229621 0.8465802834
H -0.8887640484 -2.2858542301 -0.4103812230
H -1.6618520393 -1.7368596751 1.0763166066
H -0.3438285757 0.1225308954 -1.0071005120
H -2.0881368000 -0.1598325895 -0.8589628669
H -2.1097546738 0.8230673650 1.4351265045
H 1.5596109073 1.6122453022 -0.0159423746
H 4.0501304928 -0.0353346409 -1.4933500414
        
