14

        C -1.6574611233 0.0528953113 -0.0024970864
C -0.2030160783 -0.3549999704 -0.1733609366
C 0.1276267274 -1.7026192816 0.4041309972
O 1.2123721366 -2.2180639786 0.3781343163
C 0.6284525264 0.1190952363 -1.3484616737
C 0.8932631211 0.6563164550 -0.2088449937
N 1.5984148890 1.4523957359 0.6198454971
H -2.3230374880 -0.6233269153 -0.5454902880
H -1.8157548181 1.0584642466 -0.3925146929
H -1.9649248589 0.0428058160 1.0474524571
H -0.7290801298 -2.2322167640 0.8787400928
H 0.8210351538 -0.0565467612 -2.3889012013
H 1.2098442941 1.6627088139 1.5197017656
H 2.2003766480 2.1482380558 0.2187717465
        
