19

        C 3.2510826703 0.1021844144 0.3008200786
C 1.9438794041 -0.6582356577 0.4740428125
C 0.7324314874 0.1214264585 -0.0302393547
C -0.5834161800 -0.4290119846 0.3029618735
C -1.5992482414 -0.0531306411 -0.6750426611
O -2.9274438720 -0.3931605681 -0.3888902040
C -3.4259580664 0.2790991486 0.7404354798
H 3.4353224214 0.3445776113 -0.7489159842
H 3.2386038507 1.0420477271 0.8589330788
H 4.0995401262 -0.4835588804 0.6576050833
H 1.7763551957 -0.9102661517 1.5233060361
H 1.9943702776 -1.6088252135 -0.0640112377
H 0.8714965979 0.4571620678 -1.0729830869
H 0.6458704957 1.0541847673 0.5662777013
H -2.8251130276 0.0551240949 1.6288956713
H -1.3135731380 -0.6328891549 -1.5702841948
H -1.5206555690 1.0122764424 -0.9726016930
H -3.4383445172 1.3672962903 0.5825997720
H -4.4467499157 -0.0648897703 0.8989528290
        
