15

        C -1.6387219120 1.5106582004 -0.2403441437
C -0.8733670579 0.3016594189 -0.7340050336
C 1.3436494389 -2.0482579186 0.2428737680
N 1.4831935229 -0.8727139356 0.8587346359
C 1.1129214729 0.3447968884 0.5119860351
O 0.5435502213 0.5208089555 -0.7029721382
H -2.7138594705 1.3335398143 -0.3138989511
H -1.4022885318 1.7204773377 0.8046089843
H -1.3915550353 2.3901195560 -0.8369618886
H -1.1095009201 0.0908404100 -1.7784703312
H -1.1190964302 -0.5874117767 -0.1438449238
H 0.9103442334 -2.0725357653 -0.7413166999
H 1.7451010006 -2.9186446810 0.7297698163
H 1.9390704202 -0.9081697889 1.7601701595
H 1.3950760476 1.1853102849 1.1267457114
        
