17

        C 1.3828604557 -0.6929323676 0.1266957893
C 1.2331833833 0.8309954493 0.0858985534
C 0.0570818229 1.0537277610 -0.8704227356
C -0.9170615489 -0.0858822379 -0.5768994098
C -1.6442258303 -0.0059764628 0.7779503933
C -0.7033785550 -0.9519693006 1.4587783448
C -0.0691621250 -1.2062623380 0.1010894378
H 1.8969259329 -1.0470794379 -0.7706675852
H 1.9271755900 -1.0540909518 0.9995988308
H 2.1423811638 1.3403046322 -0.2351815947
H 0.4069542946 0.9686504514 -1.9033104812
H -0.4024766297 2.0391454128 -0.7642383122
H -1.5384816675 -0.3396780697 -1.4362135925
H -1.9125331114 0.9371804356 1.2619502486
H -2.5653396681 -0.6138471377 0.7565851397
H 0.9892387896 1.2039821986 1.0862151279
H -0.1386872968 -2.2394810369 -0.2437841544
        
