11

        C -2.0582777760 -0.4689008508 0.3045745692
C -0.7356690561 -1.0577193351 0.4688163531
N 0.3189232421 -1.4963156034 0.5877859927
O 1.4369421743 -1.9415849825 0.7057639737
C 2.1674446094 0.9689765270 -0.5053413270
C 1.9585527677 2.0631627296 -0.9404629689
H -2.6758750488 -1.0968172578 -0.3376596002
H -2.5504090361 -0.3672886350 1.2718828880
H -1.9692990251 0.5179193676 -0.1503116976
H 2.3464806083 -0.0120188603 -0.1152239572
H 1.7862225403 3.0393229008 -1.3291312257
        
