11

        N -2.1820970789 -0.1326515077 -0.0314950773
C -0.9124842816 -0.0545634988 -0.0730181426
N -0.1159765108 -1.2072666181 -0.1349993210
N 1.2183597316 -0.8586036655 0.1534107170
C 1.2645458190 0.5215875886 0.0711273170
C 0.0411409683 1.0539445756 -0.0348495011
H -2.5939553076 0.7917245546 0.0169968362
H -0.4543501520 -1.9892547492 0.4048523510
H 1.8691844901 -1.3427234395 -0.4517280356
H 2.2265237767 1.0121126498 0.1055278101
H -0.2188404550 2.0994611104 -0.0373239536
        
