9

        C -1.8877230358 -0.7389220987 -0.3641543689
C -0.7720821670 -0.0842784897 -0.1577225408
C 0.2999517284 0.5530767852 0.0159388138
C 1.4889252664 1.1459168270 0.2045116956
C 2.4713439279 0.7114949830 -0.7092801026
H -2.6712354446 -0.7667036126 0.3845226474
H -2.0529360109 -1.2717779614 -1.2938865324
H 1.6480007961 1.7459346820 1.1021621433
H 3.4541059397 0.7484958851 -0.2042267555
        
