12

        C -1.2203508358 -0.3162658145 -0.0998083477
O -1.0617266365 1.0994423778 -0.0448620008
C 0.2875463948 1.3426829734 -0.2026621318
C 1.2045844922 -1.1198799433 -0.3895854460
O 0.9616965746 0.3078852400 0.5501529650
C 0.0700509956 -0.8523067795 0.5156366494
H -2.1117513361 -0.5696507066 0.4715467524
H -1.3142103907 -0.6574850671 -1.1340197412
H 0.6223967348 1.2578003160 -1.2402282956
H 0.5449128351 2.2984270853 0.2511220272
H 2.0001167349 -1.5705688889 0.2225699568
H -0.0295945630 -1.2750107927 1.5151246121
        
