14

        C 1.8955954140 -0.0927247554 0.3062048819
N 1.2414999811 -1.3009575032 -0.2041014350
C 0.9330345112 -0.0117392173 -0.8052666855
C -0.4293062762 0.6215507558 -0.6257734120
C -2.1393062412 -0.0078944638 0.8133096025
N -0.9557981727 0.4010500431 0.7042375797
H 2.9583335328 -0.0266815030 0.1057838542
H 1.5718683968 0.2878530242 1.2676285029
H 0.4976571016 -1.5657131270 0.4332519773
H 1.3231964640 0.1011572550 -1.8125465448
H -1.1144652130 0.2495169063 -1.4021690440
H -2.7878108289 -0.2092347050 -0.0490614767
H -2.5577641708 -0.1717887855 1.8048568791
H -0.3263424987 1.7024120760 -0.7666106796
        
