15

        N 0.9664351100 -0.5852910596 -2.3032149057
C 2.0214894946 -1.0444813496 -2.6390624630
O 3.0097867799 -1.4950131580 -3.0676827208
C 0.5827782308 0.6087412539 1.3233265363
N -0.1734611207 0.1766450706 0.1626006448
C -1.4670940490 0.7994608051 -0.0484342385
C -1.3712320780 -0.6036648992 0.4120375110
H 1.2743057581 -0.1818297366 1.6171258507
H 0.6283670223 -0.2877875030 -1.3681353745
H -0.0628562295 0.8464346331 2.1788708607
H 1.1616242895 1.4964827104 1.0656280866
H -1.7782403481 1.5471173968 0.6739845458
H -1.7194852350 1.0158112092 -1.0794055643
H -1.6179133050 -0.8130849995 1.4479665844
H -1.5545223200 -1.4144493737 -0.2825433534
        
