14

        C -2.0765480953 0.1960578068 -0.1378495445
N -1.0703156125 -0.2900723478 0.7835101276
C 0.2762249434 -0.1967644980 0.5351488824
O 0.4980120300 0.0889039486 -0.7565160902
N 1.2380841090 -0.3712411070 1.3479053094
C 1.8593700890 0.1505866501 -1.1577936964
H -2.0273833660 1.2785432425 -0.2925021639
H -3.0574801116 -0.0561724387 0.2635881106
H -1.9712346408 -0.2926990459 -1.1046938906
H -1.3119833918 -0.2781409174 1.7572225401
H 0.9074684732 -0.5877144090 2.2801031643
H 2.3548563225 -0.8052335724 -0.9864521651
H 1.8393228557 0.3865997480 -2.2197274930
H 2.3905573952 0.9234819403 -0.6021990908
        
