14

        C 2.1882649912 -0.2622151846 0.3842200078
O 2.3596321611 -1.4143285110 0.6616523644
C -0.8432129850 -0.4395492418 -0.6449172114
C -1.1649752515 -1.2994454517 0.5429489578
C -0.7147827500 0.8556328420 -0.6119043634
C -0.5865483439 2.1497706200 -0.5736442492
H 2.4264874551 0.1410594751 -0.6178715710
H 1.7867314619 0.4634685382 1.1164110835
H 0.3739819612 2.6159554669 -0.3816344041
H -0.7056845186 -0.9364042921 -1.6022018271
H -2.0796915031 -1.8695032489 0.3670021410
H -0.3596396347 -2.0147545635 0.7256132587
H -1.2997865069 -0.6963660129 1.4401387516
H -1.4352825368 2.8037835643 -0.7377179388
        
