13

        O -2.7094699605 0.7004040589 0.8752852549
C -1.6223305445 0.0951901601 0.3204637307
C -0.3978956263 0.0724381400 0.8348625032
N 0.6920479047 -0.6441225610 0.3009425438
C 0.8570714827 -0.7191518842 -1.1323259245
C 1.7734744916 0.1061760221 -0.3094959844
H -1.8775035522 -0.4072422342 -0.6039922871
H -0.1828445684 0.5626926252 1.7810255270
H -2.4596172212 1.1097205013 1.7071945860
H 0.1464608229 -0.1833759180 -1.7545200262
H 1.1807550960 -1.6778975660 -1.5187942616
H 2.7737437012 -0.2423543876 -0.0822163340
H 1.6561829741 1.1834270434 -0.3827293281
        
