19

        C 2.1120254924 -0.1578799885 0.5575605084
C 0.9765875400 -0.8499795180 -0.1971767215
C -0.1732918784 0.0718764775 -0.5163530927
C 0.0183910764 0.9634971947 -1.7186909551
C -1.2976938277 0.1145572457 0.2027727116
C -1.6239354832 -0.6650455598 1.4338083073
O -2.3525604015 0.9320075470 -0.1085908072
H 2.9537815306 -0.8350735378 0.7169985505
H 1.7664263934 0.1929635298 1.5321416921
H 2.4832540914 0.7112866542 0.0095581885
H 0.6365770862 -1.7151180393 0.3732137485
H 1.3660873953 -1.2543519693 -1.1379097392
H 1.0805282157 1.1201695400 -1.9138995566
H -0.4095205023 0.5269495882 -2.6276680819
H -0.4138579239 1.9609508163 -1.5908700441
H -2.4912054608 -1.3046787777 1.2553639270
H -1.8886508188 0.0246559090 2.2379130191
H -0.7942447503 -1.2816090030 1.7677474148
H -2.1672227744 1.3999768910 -0.9253940693
        
