12

        O -0.1335502618 -0.0327294277 -1.4670731858
C -0.8318581681 -0.0729684989 -0.2333504428
C -0.3604318264 -0.7820598712 0.9888563034
C -0.4753237148 0.7253216586 0.9727380214
C 1.1881579748 0.0705938001 -1.5419324368
O 1.9654258760 0.1413088568 -0.6347680220
H -1.8805340467 -0.1561467971 -0.4802830605
H 0.6429268985 -1.1796763504 0.9950070838
H -1.0937425159 -1.3649564405 1.5304110930
H -1.2905329786 1.2015086080 1.5014853805
H 0.4563872529 1.2699363171 0.9692844411
H 1.4748565100 0.0822461455 -2.6030311753
        
