12

        C 1.4904502403 -0.7328003653 -0.0162468952
N -0.0329379173 2.4052808186 1.0166669523
C -0.7794585595 1.7702283479 0.4201865783
N 0.0549535331 -0.9944840355 0.0279816610
C -1.7391932850 0.9845837009 -0.3853517338
O -2.7958118758 0.6380172970 0.0531198397
H 1.7807732447 -0.4898998626 -1.0394505696
H 1.7147908996 0.1364344243 0.6030463019
H 2.1107276709 -1.5690062769 0.3250988749
H -0.1908420708 -1.7837384570 -0.5545773860
H -0.2420807740 -1.2199457904 0.9686470163
H -1.4175261063 0.8153301989 -1.4209706397
        
