12

        O 1.0788784048 -0.9559489245 -0.0912637884
C 1.4042192680 0.2767601298 0.3953692479
C 0.5361028138 1.2766357798 0.5175088770
C -0.1807693677 -0.9534961783 -0.7374378352
C -1.1955300106 -0.1806895287 0.0844894403
O -0.7921957050 1.1693159428 0.2237995337
H 2.4430760836 0.3745265266 0.6731808912
H 0.8270161352 2.2560285580 0.8669383407
H -0.4821097408 -1.9941905821 -0.8563359000
H -0.0822774028 -0.4920090146 -1.7267602480
H -1.2895221630 -0.6372514595 1.0764744984
H -2.1708383155 -0.1751602493 -0.4019530576
        
