9

        N -1.9525162525 0.2188388282 -0.1326135820
C -0.6943974448 0.2006876829 -0.1348336930
N 0.0984705073 -0.9183950050 0.1210046838
N 1.3861180937 -0.4062053706 0.2907147948
N 1.3839574325 0.8612998173 -0.1699479465
N 0.2239468293 1.2673793061 -0.3818656804
H -0.2107796541 -1.5134188178 0.8750154010
H -2.2861706804 1.1547226357 -0.3360162466
H 2.1316971688 -0.9552690768 -0.1179187312
        
