14

        C -0.7217471919 -0.1208175207 -0.4451571981
C -0.5585403572 0.3251656015 0.9940239934
N -1.3519666469 0.9111219093 1.7727828787
O 0.6717226634 -0.0308323647 1.4233386463
C 1.4058526347 -0.6803389205 0.3900932883
C 0.7143310556 -0.3177440901 -0.9167943664
O 1.2984404910 0.8792249668 -1.3883809425
H -1.2799552790 0.6032678734 -1.0377601125
H 0.8140439205 1.1849514730 -2.1572661594
H -1.2673612132 -1.0680450231 -0.4610166865
H -2.2247282483 1.1152066114 1.2988888295
H 2.4319696155 -0.3171204328 0.4138208500
H 1.3928042714 -1.7604586041 0.5626267540
H 0.8146672846 -1.1169384793 -1.6581867747
        
