15

        C 2.3115842968 -0.2208509001 -0.1498346867
C 0.9057085279 -0.5876683159 0.3000720183
C -0.1655240259 -0.5007201150 -0.6917135849
C -1.7700172370 1.1566093186 -0.1386141720
C -1.4977714922 -0.3637085997 -0.0676352565
H 2.3950841516 0.8583029994 -0.2896299729
H 3.0594569821 -0.5212658380 0.5864617230
H 2.5411258548 -0.6970084088 -1.1031794755
H 0.8308817373 -1.6917128871 0.4250674753
H 0.6605960907 -0.1819884568 1.2962816076
H -1.7381695078 1.5128255412 -1.1680895348
H -2.7580747846 1.3621060060 0.2728684043
H -1.0390902686 1.7219363899 0.4423588817
H -1.5591827260 -0.6838712890 0.9843679939
H -2.2687815991 -0.8731984447 -0.6488004208
        
