11

        C -1.3629619837 -0.6815638290 0.8043309802
C -0.3711285945 0.4347648117 0.6579257930
C 2.2487213190 -0.6432272602 -0.8677336046
O 1.4729656284 0.3251143319 -1.3075933769
C 0.4146516321 0.6386760900 -0.5098269482
N -0.5297669431 1.4313156588 -0.5490278725
H -2.2493299604 -0.3372748089 1.3400031677
H -1.6718899263 -1.0616195187 -0.1698519876
H -0.9212676690 -1.5050789692 1.3690385764
H -0.0512134966 0.9129742235 1.5804047470
H 3.0086789942 -0.7022927300 -1.6752794748
        
