16

        C -1.9312345494 -0.4230838208 0.0766841333
C -1.1050342341 0.7761310667 0.4731480022
N 0.0446171463 0.5117141177 1.3759420785
C 0.2465205997 1.1336201743 -0.0047603420
C 0.9208654716 0.1423569284 -0.8666534562
C 2.2150085641 -0.4413558191 -0.5579091978
O 1.0566104177 -1.2625365515 -0.4382241540
H -2.5240528476 -0.1584138941 -0.8009648532
H -2.6266098590 -0.7111675840 0.8689662032
H -1.3105504290 -1.2791373212 -0.1853320920
H -1.7109245696 1.6059086732 0.8337440479
H 0.2876142979 -0.4717129140 1.4624511082
H 0.1935004895 1.0797681128 2.1944413219
H 0.6580854824 0.2297413427 -1.9179382367
H 2.9005716382 -0.7266041059 -1.3512991130
H 2.6961773810 -0.1747504052 0.3817555495
        
