15

        C 2.1667442793 0.2304376087 0.0021321782
N 0.7366913570 -0.0220356343 -0.0024819700
C 0.2201983902 -1.2243181698 -0.0237340072
C -1.2611923931 -1.0859390717 -0.0229523103
C -1.4822066924 0.4300830481 0.0035688034
N -2.6607028860 0.9337154465 0.0115277806
C -0.1714047991 0.9983643039 0.0148470044
H 2.7003625750 -0.7165706782 -0.0103622370
H 2.4300862891 0.8150342404 -0.8780241880
H 2.4287905687 0.7903928709 0.8985311926
H 0.8378953312 -2.1066816542 -0.0386450580
H -1.7255366874 -1.5574548193 0.8469372571
H -1.7232893318 -1.5271961429 -0.9097507691
H -2.6121499085 1.9494797680 0.0299216946
H 0.1550639078 2.0237718838 0.0330156287
        
