10

        N 1.7719748146 -0.3419842744 0.4714942100
C 0.4437642188 -0.3016264314 0.2783622240
C -0.4770990073 0.7930196960 -0.2469775761
O -1.4925767524 0.9081242158 0.7616033537
C -1.4630198966 -0.2478187500 -0.0535299932
N -0.4590937409 -1.2032487510 0.4817906519
H 2.2962828925 0.5120348675 0.4847816686
H 2.1567632369 -1.1372756974 0.9515521831
H -0.3484831521 1.5842572989 -0.9708787747
H -2.3468286135 -0.5338731743 -0.6038189471
        
