10

        O -2.1471347791 1.1112580979 0.0254041392
C -1.8962187501 -0.0338172973 0.2550611349
O -0.6704370400 -0.5630060798 0.2866762184
C 0.3919486839 0.3524228078 0.0196263126
C 1.9927428829 -1.6260810492 0.3578246004
C 1.6750690187 -0.3983660819 0.1087919323
H -2.6353433990 -0.8149344380 0.4730730437
H 0.2639261833 0.7870015920 -0.9741098747
H 0.3666432731 1.1687988124 0.7444307950
H 2.6225479262 0.1305786361 -0.0602273017
        
