14

        C -1.3734164481 0.9547477644 -0.1544733747
C -0.4725162074 -0.1441840958 0.4124336848
C -0.7221732983 -1.4962828651 -0.2810668647
C 0.9439813676 0.1596907142 0.2946333187
C 2.1373618850 0.4312675445 0.1627493809
C 3.4668601398 0.6376708262 0.1532325167
H -1.1961650464 1.0806258449 -1.2240272210
H -1.1839556411 1.9102534969 0.3352302573
H -2.4238444410 0.6967706337 -0.0042811363
H -0.6942313227 -0.2805692811 1.4773468172
H -0.4869529347 -1.4320869440 -1.3446936627
H -1.7752714440 -1.7609289246 -0.1783342843
H -0.1173151240 -2.2875986848 0.1604299304
H 3.7578465156 1.3887869706 -0.5930833620
        
