11

        O 1.4879095960 -0.3096833570 0.0924795185
C 1.4988276402 -0.5638506547 -1.1687755783
C 0.2458792847 0.0782369972 0.7030841629
C -0.7157375577 0.9243264686 -0.0455505830
C -1.0297950286 -0.5186736772 0.2366874452
H 2.5629502822 -0.8252999690 -1.3531720443
H 0.4279301467 0.2446297678 1.7542986783
H -1.2351534847 1.7048460190 0.4938221635
H -0.4368987384 1.1502469772 -1.0677351910
H -1.7749133827 -0.7721929709 0.9784206884
H -0.9447547577 -1.1886246009 -0.6104322604
        
