16

        C 1.0177160293 1.3162213321 0.0306067066
C 0.3416006498 0.0620463036 -0.4767039907
C -0.8777641079 -1.0201063350 2.3267844836
C -1.1501662787 -0.1268297046 -0.2607132693
C -0.6176192270 0.1523376920 -1.6309915249
C 1.1557663186 -1.1304323734 -0.4167770966
N 1.8073632492 -2.0744319073 -0.3595795037
H 1.8990748569 1.5495547510 -0.5681285969
H 1.3309214879 1.2023578029 1.0694982812
H 0.3286883607 2.1594214327 -0.0289179202
H -0.1156205606 -0.2311604987 2.4932083142
H -0.2557597683 -1.8719725210 1.9841316201
H -1.5303845204 -1.1219292356 -0.0667070020
H -1.6676666897 0.6674253970 0.2603444716
H -0.6223437407 -0.6558565206 -2.3486953563
H -0.7724850590 1.1389443847 -2.0473466166
        
