14

        N -2.4538457777 -0.3707003989 -0.0639662031
C -1.0918329258 -0.1092051687 -0.0563025597
C -0.0039294550 -0.8565149550 -0.2112911200
C 1.1687921837 0.0865656136 -0.2710693977
N 2.2936527777 -0.2505358914 0.5833101521
C 0.6159569256 1.4717918727 0.0189867043
N -0.6801357409 1.2555909436 0.0592247560
H -2.6652586200 -1.3542449220 -0.1168453808
H -2.9580347474 0.0591630609 0.6980518638
H 0.0330724410 -1.9302358490 -0.3107415977
H 2.8800921603 0.5666960938 0.6918688883
H 2.8530326247 -0.9874292301 0.1766990284
H 1.4557716002 0.2055919720 -1.3372624885
H -1.3534284462 1.9995828583 0.1628713546
        
