13

        C 2.0848697936 0.2741887598 0.3669373579
N 1.0327809268 -0.7046567562 0.1593254046
C -0.2657379357 -0.3228349459 0.3081540045
C -1.5021668946 -0.6452806924 -0.1047889420
C -1.9875554863 0.4184798953 0.8405873205
O -0.5820521564 0.6769947524 1.1893628446
H 2.1193669421 1.0416628690 -0.4144745970
H 3.0436542287 -0.2416561871 0.3988468181
H 1.9322365396 0.7666875610 1.3252967667
H -1.9514427226 -1.3529817785 -0.7760659960
H 1.1732736456 -1.3329029055 -0.6134592638
H -2.4352836975 1.3178200044 0.4140778380
H -2.5285301833 0.1013484238 1.7341884438
        
