11

        N 2.7691881268 -1.1494070446 0.5731018755
C 1.7550490810 -0.6035383145 0.2200366227
C 0.6693028920 0.0879826180 -0.0870136851
C -0.5743896977 -0.1912565412 0.5738518868
C -1.7787256100 0.3876270373 0.3871518355
N -2.1245696303 1.4151941122 -0.5168181001
O -1.2330718824 1.8374269166 -1.2219566564
H 3.0670761974 -2.0062750630 0.1198094842
H 0.7455622128 0.8522794000 -0.8458163382
H -0.5392270989 -0.9704063360 1.3300752100
H -2.6265995907 0.0665312155 0.9768828651
        
