12

        C -1.6375132506 -0.2000883676 0.5326007071
C -0.3822545296 -0.4616376029 1.3537232914
C 0.9631427635 -0.1018882968 0.8279179016
O 0.8155915460 0.3993351643 -0.3906896434
C 1.9693710321 0.6923613255 -1.1183090252
O 2.9291545027 0.0120470148 -1.1487452962
H -1.7633327640 0.8639539764 0.3274643989
H -1.6020569189 -0.7186727506 -0.4262373106
H -2.5224707783 -0.5457636958 1.0682803700
H -0.2663442043 -1.5274035582 1.5986922124
H -0.4284469326 0.0072933057 2.3442131982
H 1.7998365340 1.6141074850 -1.6884908042
        
