12

        C 1.5442744103 -0.2801061754 0.2982273074
C 0.4866909462 0.7357486948 -0.0081039659
C 0.6020626058 1.9226275105 -0.5140034343
C -0.9858035858 0.4458312910 0.2674001624
C -1.4615827700 -0.6686447660 -0.6372971118
O -1.8662632797 -1.7233815696 -0.2404831514
H 1.5383894619 -0.5110661527 1.3651139393
H 2.5326643338 0.0840851146 0.0244219145
H 1.3512639010 -1.2066270842 -0.2460883760
H -1.5933175403 1.3338016981 0.0573386030
H -1.1236332168 0.1664472419 1.3134879426
H -1.3948872665 -0.4441148028 -1.7218488297
        
