13

        C 1.8425758367 0.5107925649 -0.3094526872
C 0.6370736130 0.2364661990 0.5824976501
C -0.3671229076 -0.6604269728 -0.0929775059
O -2.9035104572 -0.5121636978 0.5971268344
C -1.7728537892 -0.4297279086 -0.0761162780
N -1.3114189185 -0.0365179698 -1.1634382690
H 2.5659458660 1.1563443208 0.1909243385
H 2.3521841961 -0.4178139181 -0.5775527762
H 1.5303025631 0.9982706931 -1.2345398133
H 0.1500213621 1.1755301320 0.8581786369
H 0.9598684657 -0.2361256736 1.5159177596
H -0.0033166319 -1.6561390313 -0.3469236004
H -3.6105911982 -0.1388967379 0.0554667102
        
