15

        C -2.4918889195 -0.2572613352 -0.4623706980
C -1.3845924609 0.0588929512 0.4562642736
C -0.1380318412 0.8565693568 0.6167982346
N 1.0609053947 0.5249781050 -0.1292202383
C 1.8796863641 -0.4596060907 0.2180039768
N 2.9205196544 -0.6021521133 -0.6111689356
C -0.7144177943 -0.1367031991 1.5420684348
H -2.0928853154 -0.6355173270 -1.4063222466
H -3.1572078149 -1.0107480704 -0.0409570995
H -3.0725621451 0.6394260849 -0.6894282389
H -0.1804826460 1.9230270703 0.8420261957
H 1.2326630670 1.1036216722 -0.9489812193
H 3.5963134078 -1.3161067278 -0.4225862447
H 3.0924309793 -0.0225750051 -1.4265815491
H -0.5582049300 -0.6627733717 2.4663833545
        
