11

        C -1.8407863306 0.0991205680 0.1236213422
N -0.4495658255 -0.2556902956 -0.0272220836
C 0.3881103549 0.6611705218 -0.2132738900
N 1.7632077405 0.3899486222 -0.4401319298
N 2.4738249219 -0.2385574965 0.8705940690
C 2.1019098486 -0.9246037864 -0.0819965010
H -2.4248815703 -0.4190291422 -0.6390971819
H -2.0289047118 1.1769109114 0.0453950272
H -2.1944355490 -0.2536007581 1.0940863366
H 0.1436042883 1.7256092850 -0.2721175179
H 2.0507108330 -1.9340084294 -0.4618696709
        
