14

        O -0.8349357996 1.8115870343 0.2638976817
C -0.7083749997 0.4425443640 0.6086291985
C -1.1065632600 -0.4823605142 -0.5539222968
C 0.0763865460 -0.8825942621 -1.3471730218
C 1.2200702505 -0.4465184500 -0.5128004668
C 0.7371252271 0.0131557486 0.8721141130
H -0.4001323388 1.9741277274 -0.5759733211
H -1.3451852700 0.3187152268 1.4845395785
H -1.9878967187 -0.1820184825 -1.1229050617
H -1.3479779578 -1.4892050396 -0.1566752127
H 0.7545494905 -0.8303508125 1.5672819189
H 1.5409006740 0.4164588892 -1.1301014793
H 2.0802453111 -1.1168099202 -0.5411311793
H 1.3236108455 0.8197264908 1.3117425486
        
