13

        C 1.4319958029 0.6650100417 -0.9774242755
N 0.2640482191 0.5411549532 -0.4538996029
C -0.6442698959 1.2239726790 0.4797271377
C -0.8781141705 -0.0589429870 -0.1773543012
C -1.5244446605 -1.3031394370 -0.3709917590
O -2.5800212368 -1.6357908180 0.1304177996
H 2.0005970675 1.5577130328 -0.7684901792
H 1.8044353602 -0.1149493994 -1.6252296496
H 1.5911538267 -1.0576529098 1.6136049332
H -0.2862866266 1.2686214684 1.5078551631
H -1.0981543920 2.1370765550 0.0995156875
H 0.9082413188 -1.3606134890 1.6209131782
H -0.9705036131 -1.9817726898 -1.0522511316
        
