17

        C -2.2500279640 -0.3663465523 -0.3145056037
C -0.9690267994 0.2272486720 0.2297406574
C 0.0780474380 0.7694002418 -0.7761660889
C 1.1511001232 0.1561141733 0.1135990896
O 2.3280001989 -0.4225529383 -0.5438528392
C 0.1137330525 -0.7360275753 0.7798573648
C 2.3121207289 0.7739850620 0.7686597778
H -2.0348633750 -1.1303458653 -1.0662528691
H -2.8365535433 -0.8336049091 0.4797318593
H -2.8717299760 0.3990347895 -0.7842198098
H 0.1294751300 1.8441255105 -0.9485903702
H 0.0161087440 0.2476073980 -1.7343407107
H 2.6190968201 -1.1792105985 -0.0244763404
H 0.2067822530 -0.8656850238 1.8575636522
H 0.0474420105 -1.7125753523 0.2905786041
H -1.1943295492 0.9907516763 0.9772486193
H 2.5711887078 1.6550272911 0.1601780075
        
