17

        C 2.1710926949 -0.6582048584 1.0483904598
C 1.3796618500 -0.0546882688 -0.1102901405
C 0.2552846590 -0.9670501920 -0.5286531515
C -1.5004884174 0.6156908366 -0.5590391221
N -0.9669051720 -0.7240578554 -0.7246064364
C -2.1418182645 0.7622953738 0.8141009736
H 1.5439919163 -0.7675988617 1.9353996026
H 2.5565986669 -1.6469200704 0.7899621509
H 3.0205859064 -0.0270712261 1.3123787062
H 1.0128848324 0.9344834550 0.1628275928
H 2.0436844786 0.0789584312 -0.9713805440
H 0.5588342451 -2.0103306310 -0.6684032593
H -2.2630362228 0.7516742763 -1.3293082458
H -0.7532200372 1.4027566847 -0.7115607815
H -2.8872141089 -0.0187218614 0.9708727971
H -2.6301326751 1.7334401799 0.9116621528
H -1.3923473515 0.6727405878 1.6039022452
        
