9

        O -1.2315423376 -0.2653148423 -1.0469738080
C -0.1214077489 -0.1706738725 -1.5125107562
C 1.0568726795 0.0660141750 -0.7146342900
C 2.0416629473 0.2596620712 -0.0612218150
C -1.6304872141 0.0350165356 2.9364232650
N -1.5895840085 -0.0574169121 1.7795960241
H -1.5277035665 -0.1361800220 0.7697658042
H 0.0446972268 -0.2639034545 -2.5964074668
H 2.9075460219 0.4318523215 0.5366170425
        
