7

        O -1.1505390288 0.1382544973 0.1251647150
C 0.1312656900 -0.8189352103 -0.1311695021
C 1.2246349967 0.0758385276 -0.0726316517
N 2.0999537811 0.8203043516 0.0760757890
H -0.9443504157 1.0731566334 -0.0269385324
H -0.0863579553 -1.1856087496 -1.1290897820
H -1.3654020681 0.0147819499 1.0562179640
        
