11

        O 1.9310032695 0.1336069671 0.0579125621
C 0.6349816384 -0.1362700917 0.4881136652
C -0.1409498650 -1.2366827819 -0.1940509775
C -1.3546263561 -0.8723655816 -0.6932196831
C -1.3459900584 0.5444473178 -0.3611736779
N -0.2825375040 0.9853966782 0.2642980619
H 1.9711590034 -0.0288856088 -0.8887190840
H 0.2838527760 -2.2367184128 -0.1972633058
H 0.6847188425 -0.3077934030 1.5689041290
H -2.1376050830 1.2576483840 -0.5818347347
H -0.1044936631 1.9274565326 0.5725540449
        
