11

        N -1.9692676935 -0.7019467944 -0.9888027700
C -0.9341816400 0.1585699530 -0.8846772233
O -0.8007678353 1.1785235749 -1.5055678562
C 1.9596843800 0.0515489041 1.1741350078
C 1.0637520483 0.4512122615 0.2925766937
O -0.0522903145 -0.3090099757 0.0443043019
H -2.0003751465 -1.5386906684 -0.4393918130
H -2.6952575901 -0.4944416340 -1.6462952326
H 1.8488737032 -0.8753854617 1.7212451929
H 2.8305399972 0.6633559929 1.3581315800
H 1.1192210910 1.3648518479 -0.2844438812
        
