11

        O 1.7824802076 -1.1945219900 -0.3074129803
C 0.8428726177 -0.4582910267 -0.2028352347
O -1.0344172142 -2.0044553902 -0.4834734557
C -0.6495453965 -0.8904121986 -0.2979807959
C -1.4842598010 0.3636542528 -0.1126572554
C -0.4479593358 1.4345721970 0.0818320821
C 0.8114371388 0.9954514591 0.0323089782
H -2.1520794010 0.2582438936 0.7458575533
H -2.1148997539 0.5388837823 -0.9878474950
H -0.7242281596 2.4693155246 0.2466281701
H 1.7043370980 1.5939204962 0.1446924333
        
