12

        N -1.8320358371 -0.5273395344 0.7087648211
C -0.5858624680 -0.2352621141 0.2134364364
N 0.4911992095 -0.8769354085 0.3087662448
C 1.5132181134 -0.0288854533 -0.2411601103
O 2.7602842075 -0.5522720661 -0.2271932885
C 1.1559839665 1.1759674526 -0.7257397606
N -0.3464731302 1.0819766120 -0.4061801639
H -1.8958006029 -1.4560085652 1.0950228720
H -2.6182370656 -0.2910634270 0.1250823930
H 2.7027852529 -1.4235537173 0.1703362773
H -0.8634584980 1.2201725334 -1.2722833221
H -0.5995971480 1.8370616878 0.2280996007
        
