15

        C -1.9961069530 -0.2220137175 0.9089501435
C -0.8400886640 0.2765191177 -1.2181845026
O 0.2261322185 0.9399573452 -1.5274038772
C 1.4508004392 0.9350630893 -0.7306300271
C 1.5331952445 -0.3179642388 0.0940902439
O 0.3734309583 -0.4156875851 0.8783788577
C -0.7785893004 -0.5280619266 0.0540704510
H -1.9827420913 0.8215481803 1.2272766924
H -1.9890627152 -0.8542650376 1.7966738860
H -2.9069880545 -0.4002734430 0.3403136862
H 1.4241892434 1.8238997012 -0.0997948730
H 2.2603597536 1.0244010375 -1.4538911103
H 1.6409165957 -1.1980460005 -0.5570074560
H 2.3935231635 -0.2823850590 0.7636502340
H -0.8585938382 -1.5658344628 -0.3204643486
        
