12

        N -1.8989321700 0.1939058932 -0.0009613444
C -0.5178896851 0.2341454665 -0.0513368840
C 0.3100581155 1.2249425247 -0.4247937298
N 1.6663046694 0.8128214691 -0.4234025740
C 1.6940366173 -0.4096454735 -0.0578157250
C 0.3305568501 -0.9695650598 0.2243041747
H -2.3550510041 1.0906836552 -0.0208071980
H -2.2895930265 -0.4150244025 0.6980639097
H 0.0582396887 2.2346986477 -0.7148097962
H 0.2418368912 -1.3357847539 1.2524117154
H 2.6210068975 -0.9642127273 0.0348052464
H 0.0841501558 -1.8022372394 -0.4414447948
        
