12

        N 0.4699342862 1.0776652852 0.7426113948
C 0.3871282590 -0.2644670300 0.2322794991
C -0.9559043660 -0.4516362954 -0.4754108883
O -2.0073848571 -0.2150720534 0.4156705586
C 2.2997978201 -0.8538218084 -1.4313005289
N 1.4518962852 -0.6058330736 -0.6725272380
H 1.2261918262 1.1913746954 1.4015876871
H 0.5910593436 1.7480496470 -0.0059232366
H 0.4391310858 -0.9562607355 1.0747411626
H -0.9889992673 0.2197252096 -1.3460720535
H -1.0436507201 -1.4758907645 -0.8383294209
H -1.7968556956 0.6010739234 0.8831900640
        
