14

        N 1.6917721865 -1.9546314585 -0.2621045016
C 1.1737775258 -0.6353996261 -0.2484979393
O 1.0064769270 0.2730191430 -1.1731876224
C 0.1476817570 1.3545696687 -0.7999409110
C -1.3036183537 1.0474753945 -0.9981197473
C -1.7919036714 -0.0828101916 -1.4780796676
C 1.0465142495 -1.1321620209 0.9244508209
H 2.7050895649 -1.9264879377 -0.1494386524
H 0.4502134172 2.1927868266 -1.4298400670
H 0.3480136728 1.6267113750 0.2416383479
H -1.9719583105 1.8552387547 -0.7119050417
H -1.1498440184 -0.9051267065 -1.7706664396
H -2.8593076081 -0.2219009325 -1.5915215118
H 0.4760376619 -1.4076392885 1.7874659329
        
