14

        C -1.3946385703 -0.6060915412 -0.2547547578
C -1.2312415660 0.8868716888 -0.4756719780
C 0.1474067227 1.4147431337 -0.2282563768
N 1.1073018472 0.6825961031 0.1456030310
C 2.2822144976 -1.8378282990 0.9833138010
O 3.2752419108 -1.2464178298 1.0441657728
O 1.3189099602 -2.4751834760 0.9406669281
H -0.7337464687 -1.1755647992 -0.9083174692
H -2.4232436663 -0.9099347039 -0.4541220079
H -1.1437924406 -0.8820978396 0.7692891001
H -1.5069634382 1.1640416892 -1.5001006068
H -1.9166535731 1.4560229152 0.1634747862
H 0.2702652497 2.4926276653 -0.3951173367
H 1.9614855348 1.2229752934 0.2585451140
        
