10

        N 3.0154519812 -0.0455688699 -0.0069391939
C 1.9438728048 0.2974208485 0.2820332246
C 0.7145266049 0.7508689040 0.7573201380
C -0.9023221061 -0.8027764340 0.0324530700
C -0.4076796864 0.6612584073 -0.1784153782
H -0.1572840947 -1.5262067607 -0.2970351130
H -1.1443893290 -0.9938510617 1.0770865893
H -1.8038451752 -0.9324359755 -0.5647584801
H -1.2152024106 1.3358057261 0.1048510014
H -0.1520215890 0.7900682161 -1.2346528580
        
