13

        C 1.1164855879 0.7654282656 -1.0557642295
C -0.1873134685 -0.0209087427 -1.1034907740
C -0.4958188296 -0.7017994055 0.2260402982
C -0.8370303916 0.2660497820 1.3084828137
O -0.4748148863 -0.2573650842 2.4552473866
H 1.0662150260 1.5473615979 -0.2939005402
H 1.3297882271 1.2436687320 -2.0131980761
H 1.9601345101 0.1143599862 -0.8115773483
H -0.1384126119 -0.7744142584 -1.8939831281
H 0.2927867917 -1.4060199513 0.5234605670
H -1.4241882562 -1.2868391386 0.1333405028
H -1.0128252631 0.6507486748 -1.3521911722
H -0.7340094356 0.3488355420 3.1570597001
        
