14

        O -2.2568066545 -1.6551758762 -0.6554422013
C -1.5337735423 -0.8995891418 0.1280339284
C -0.2677955687 -0.5937795754 -0.6228297639
N 0.6293187353 0.2701599135 0.0948929440
C 0.2042786193 1.6295468110 0.3420527361
C 1.8241689336 -0.1755119491 0.5517737150
O 2.6327645320 0.4783534381 1.1681133571
H -3.0742527890 -1.8785265078 -0.1977258277
H -0.7454017046 1.6345701224 0.8809721101
H 0.2328948689 -1.5472499049 -0.8308554586
H -0.5287993640 -0.1622824215 -1.6011499803
H 0.9667320207 2.1220924272 0.9403370964
H 0.0823370801 2.1704176834 -0.6012991586
H 1.9987628334 -1.2365470187 0.2936945033
        
