11

        C -2.1573961202 -0.6719623109 0.0939955470
C -1.5461332940 -0.7285492691 -1.2248639150
N -1.0419976811 -0.7641507408 -2.2545651907
N 3.3325970615 0.9286779604 1.2733250206
N 2.3502921897 0.7409595143 0.5552948355
C 1.3447577127 0.4479282290 0.0059821063
H -1.4443429170 -0.2418104548 0.7982732925
H -3.0538065773 -0.0538075858 0.0642634471
H -2.4262208714 -1.6751729641 0.4225102345
H 3.5478202011 1.9251875273 1.2898805498
H 1.1240982960 0.1655970944 -1.0113809275
        
