11

        C 2.6216163821 -0.6719207762 0.2656385766
C 1.4838997926 -0.3303488220 0.1012520135
C 0.1175995816 0.0344910283 -0.0794957236
C -0.9669021278 -0.9040795102 0.2539611170
N -2.1861370258 -0.5689462748 0.2021814500
N -0.4823952718 2.2759442890 -1.0762118180
C -0.1926157816 1.2397143755 -0.5442558447
H 3.6334185740 -0.9695225821 0.4072486830
H -0.6144959590 -1.8984792920 0.5455316921
H -2.7881970805 -1.3472114006 0.4524181908
H -0.6716270840 3.1013949653 -0.5183563368
        
