16

        C 1.5814794640 1.3326345431 -0.4520806185
C 1.0717779884 0.8931899360 -1.5298184929
N 1.7149329122 -0.1300811330 -0.6533569370
C 0.7765904435 -1.0035260989 0.0994580132
C -0.6292472412 -0.5025751647 0.3149228377
C -0.8613433850 0.4081665077 1.4830978960
C -1.6063063634 -0.8487175846 -0.5152332523
H -0.2739515299 1.3259769050 1.3868028655
H 1.9076869516 2.0842933614 0.2421395736
H 0.6197356639 0.9558724117 -2.5008579248
H 1.2554313920 -1.2146748844 1.0607094548
H 0.7466681735 -1.9419333736 -0.4579927886
H -1.9111539533 0.6869821784 1.5757730571
H -0.5456543929 -0.0723004959 2.4131574410
H -1.4263947382 -1.5203465100 -1.3475991342
H -2.6193643850 -0.4834455982 -0.3877429905
        
