14

        O -0.6537593136 2.0513198980 -0.1286900676
C -1.2400393697 1.0114292387 -0.0707808483
C 2.5138216845 -1.1955125821 -0.1393653595
C 2.3126823904 0.0682768448 0.1403312515
N 2.2085612736 1.2409208180 0.4282771266
C -2.5014217767 0.2951209925 -0.2307532801
C -1.1824394293 -0.4213279779 0.1995566264
H 1.2974632198 1.6785232462 0.2645928397
H 2.3422585715 -1.9498025170 0.6145960074
H 2.8729946144 -1.4843127199 -1.1161564653
H -3.2704461413 0.4283376960 0.5211280228
H -2.8685367684 0.1144201809 -1.2342915454
H -0.6863676093 -1.0613504305 -0.5209934324
H -1.1009333460 -0.7496536877 1.2293411239
        
