12

        O -1.0197167040 -1.9093363146 0.9307057716
C -0.4587941764 -0.8121314351 0.3675986026
C 0.5715244148 -0.5752411792 -0.6891356111
N -0.8764052999 -0.1568224251 -0.8121865826
C -0.7039253609 0.6602187792 0.4480760986
C 0.5773141724 1.4068384012 0.3534392529
C 1.3827394893 0.6266022952 -0.3643135566
H 0.8783910447 -1.3675002015 -1.3576846599
H -1.7669683909 -2.1773189436 0.3856922030
H -1.6186118975 1.0526323164 0.8702347250
H 0.7806775842 2.3680005515 0.7996898118
H 2.4102021242 0.7898721558 -0.6506090553
        
