12

        C 1.6059574758 -0.2928443180 -0.9257658919
C 0.6090759235 -0.8760801740 -0.2817279482
C -0.4240244960 0.8869360091 1.8064180535
C -1.3246163275 0.7312238236 0.7451616351
O -0.9924952878 0.9685231016 -0.6585183286
C -0.7660389480 -0.3168075343 -0.2327010323
H 1.4751281460 0.6700666499 -1.4049228031
H 2.5792727165 -0.7618090156 -0.9881232782
H 0.7336214796 -1.8458965106 0.1887118733
H 0.5460842756 1.2133121308 1.4041077795
H -2.3961089862 0.6577849636 0.8974094674
H -1.5423719715 -1.0433001260 -0.4788575266
        
