14

        C -1.3448465078 -1.2357625734 -0.4084028343
C -0.1177311690 -0.7758215853 -0.2379778034
C 0.4386046432 0.5941982860 -0.4686728969
N -0.1347986642 1.6409274985 -0.9005390451
C 1.8394102893 0.4667882200 -0.0761553018
C 2.0186554848 -0.7964236156 0.3050913144
O 0.9028679061 -1.5765641744 0.2307856820
H -2.1224267538 -0.5786617463 -0.7722389418
H -1.5965738548 -2.2637515455 -0.1885311627
H -2.5322676600 1.4393963116 1.6864443151
H -1.9202859443 1.7392228616 1.3838459664
H -1.1150976604 1.4627170077 -1.1121390440
H 2.5735578600 1.2536242649 -0.1034991476
H 2.8979610310 -1.3095572100 0.6641468997
        
