13

        O 0.6394331720 1.1589991048 1.5552157152
C 0.6318836770 0.5732858380 0.5103451361
C 1.8456160165 0.1036220321 -0.2592567142
O 1.2962236934 -0.7765167407 -1.2712003100
C -0.0057304452 -0.8494055926 -1.3291001160
C -1.7645458984 -0.3617287845 0.4788571390
C -0.5581240374 0.1205345820 -0.3109922457
H 2.5455821351 -0.4629936282 0.3525397463
H 2.3658856065 0.9296139175 -0.7460462450
H -2.5803287371 -0.6136014141 -0.1971583204
H -1.5159758753 -1.2518799046 1.0579568441
H -2.0952458112 0.4114720752 1.1715501195
H -0.8526274960 0.9845045153 -0.9294357488
        
