12

        O -1.9479296497 -1.0410430569 -0.4075916822
C -0.8312749512 -0.3306594981 -0.1434798212
C 0.4894574201 -1.0307393472 -0.1739074295
C 1.4485580537 0.0738365248 0.1603211092
C 0.7608444890 1.2065205435 0.3484734654
C -0.6728987094 0.9673906190 0.1598520320
H 0.6753789387 -1.4735808658 -1.1573624743
H 0.5155098923 -1.8485040088 0.5531905850
H 2.5181330746 -0.0560789804 0.2343331872
H 1.1834378040 2.1690525153 0.6046657995
H -1.4531226890 1.7106366570 0.2540215466
H -2.7139206730 -0.4651221022 -0.3518553176
        
