15

        C 2.3321086640 -0.6287042498 -0.2272693623
N 0.9998554400 -0.1325999304 -0.5430350554
C 0.6318729501 1.0443335851 0.2107360405
C -0.7656016457 1.4342345065 -0.1680935687
C -1.1674398645 0.2093045524 0.1699290300
C -2.3611007049 -0.6545154606 0.0809193401
N 0.1411079641 -0.2473219387 0.6760000759
H 3.0358237614 -0.1669623013 -0.9218217709
H 2.3459111190 -1.7070952200 -0.3814859437
H 2.6365472087 -0.4144263170 0.8032004191
H 1.3754216861 1.6039885603 0.7667475970
H -1.2134565164 2.2978809860 -0.6344876995
H -2.1382711522 -1.5258345364 -0.5403027450
H -3.2014842913 -0.1167479525 -0.3567113620
H -2.6492656184 -1.0183462836 1.0690790049
        
