8

        N 1.5660406805 -0.3731312498 -0.6330444966
C 1.8272118356 -0.4421003173 0.5638450610
C 0.2522786680 -0.1736004409 0.0714635321
C -0.4338796770 1.1134700310 0.2120699590
O -1.6154145088 1.2236916211 0.4071402951
N -1.2691694318 -2.0906558689 0.1715455666
N -0.5664747412 -1.2405757329 0.1145597203
H 0.2514341748 1.9752389578 0.1294483626
        
