13

        C -1.9879465627 0.3363472489 -0.1505617145
C -0.5373559939 0.0102525580 -0.1446165818
N -0.0223192390 -0.7595218580 -1.1781357703
O 1.3641204777 -0.8326659885 -0.9961327856
C 1.6714642784 -0.2572793283 0.2190499392
N 2.8680302588 -0.3050449200 0.6137845849
C 0.4249363985 0.2801873036 0.7442233700
H -2.5821744284 -0.5783848732 -0.1270078365
H -2.2430707578 0.9455174019 0.7138497030
H -2.2614871518 0.8886326482 -1.0527183700
H 2.9565380503 0.1378591800 1.5203774866
H -0.1893018265 -0.4155079870 -2.1167479358
H 0.3213804962 0.7901286143 1.6871709110
        
