13

        C 1.8663038620 -0.0334782160 -0.0409750172
C 0.3867565820 0.1357135007 -0.0069399817
C -0.3554151897 1.3292932624 0.0385269493
C -1.7250588513 1.0911944871 0.0715583588
C -1.8084731089 -0.3976702682 0.0416243763
N -0.4307827019 -0.9038068845 -0.0078673712
H 2.2139626461 -0.5116672730 0.8772115254
H 2.1677012500 -0.6613189377 -0.8814498250
H 2.3568660972 0.9331996256 -0.1313986587
H 0.1269081008 2.2993109543 0.0449075191
H -2.3175154378 -0.7759816830 0.9330274576
H -2.3700487626 -0.7392690703 -0.8328450072
H -0.1366574856 -1.8642634975 -0.0377143256
        
