12

        N -1.6675343247 0.1876219879 0.5058054220
C -0.2366474463 0.0004348483 0.4689268893
C 0.4818509255 1.2299191508 -0.0604639015
N 1.6989987891 1.1182344111 -0.4394309653
C 2.1886279571 -0.1048217822 -0.1676186051
N 1.5168346807 -1.0901226742 -0.7862123769
C 0.2880342371 -1.1157836928 -0.4280399775
H -2.0649749820 0.2317125756 -0.4231038365
H -2.1308641401 -0.5519477088 1.0128985307
H -0.0526174090 2.1691530198 -0.1569315040
H 0.1292252070 -0.1801165632 1.4922231295
H -0.3832234944 -1.8807335723 -0.8092688045
        
