14

        C 2.3523518034 0.2992589110 0.0039855929
N 1.2399340309 0.6616679403 -0.6683569490
C 0.0028153477 0.3037390365 -0.4084854527
N -1.0733579920 0.7207839285 -1.1393686988
N -2.0782800337 0.1369434492 -0.5304645867
C -1.8203119833 -0.6249776914 0.5237207126
C -0.3481447008 -0.5971498961 0.7296304340
H -0.0102487404 -0.1832467773 1.7020871937
H 2.2627104242 -0.3633143722 0.8463124815
H 3.2960141014 0.6789815081 -0.3432333831
H 1.3517371962 1.2787759670 -1.4609481133
H -3.0005050100 0.3007511803 -0.9024800563
H -2.6029159344 -1.1308321500 1.0616947138
H 0.1602374907 -1.5801720338 0.6536781114
        
