9

        O -1.8809048302 1.8209855922 0.5101318410
C -0.7562188614 2.0858828540 0.5128868247
C -0.2315898896 -1.1667688663 -0.2472493164
N 1.0358836401 -1.9477718586 -0.5695825281
C 1.1574875569 -0.7582213599 -0.2319089980
O 0.3685941687 2.3576728236 0.5169993235
H -0.7403482924 -1.4323556892 0.6738811827
H -0.8731771647 -0.9199915636 -1.0871771814
H 1.9308666728 -0.0201039323 -0.0740191480
        
