16

        C -0.4429075256 1.6537760160 -1.5026064570
C -0.4658824589 0.7793291894 -0.2766070155
C -1.0009733095 -0.6202738697 -0.3489048774
C 0.4727278330 -0.3796620602 -0.1508084161
C 1.0990766853 -0.7132397511 1.1731590903
O 1.4266499261 -2.0844350050 1.2911682625
H 0.3226229627 2.4283596201 -1.4193058071
H -1.4060618525 2.1463409073 -1.6530795904
H -0.2263127546 1.0653388805 -2.3970655911
H -0.6762947274 1.3054835407 0.6496095750
H 0.6488684291 -2.5932245974 1.0517753941
H -1.3356470129 -0.9860719441 -1.3116703416
H -1.5735844491 -0.9903897420 0.4940812513
H 1.1084028073 -0.5784016533 -1.0080180787
H 2.0388101800 -0.1719246291 1.3008802934
H 0.4258152670 -0.4016949023 1.9849213082
        
