15

        C 2.0437501426 -0.0002773393 0.5808266618
C -0.5725989519 -0.5347702580 -0.9947580550
C -1.9758468803 -0.8878268210 -0.7595814405
C 0.5911328671 0.3465121239 0.8726676096
C -0.2158206507 0.7633402052 -0.3938708286
H 2.5761854085 0.8665975959 0.1834030255
H 2.5561724669 -0.3188206736 1.4906153067
H 2.1138796067 -0.8033442254 -0.1525645250
H -2.1864137926 -1.9570494065 -0.7804285739
H -2.4936437484 -0.3825136804 0.0691899148
H -2.4058003363 -0.4814762112 -1.6956066605
H 0.0974763333 -0.4959898407 1.3683640100
H 0.5315970388 1.1801610542 1.5755299366
H -1.0667767820 1.3930776508 -0.0905350767
H 0.4530112781 1.3408048259 -1.0365033048
        
