14

        C -1.3316811265 0.8373273955 -1.9670994220
C 0.2561959367 0.3461549694 1.4642400508
O -0.6023473502 1.1563571050 1.6254408424
C 1.1627367860 -0.6395304948 2.0577730685
C 1.0169481149 -0.4940703557 0.5205233173
O 0.3876633385 -1.5323151116 -0.1547113379
H -1.8271851826 1.6070312415 -2.5560254327
H -1.9385596287 -0.0686669097 -1.9986623973
H -0.3484782329 0.6441624190 -2.3977187093
H -1.2313541234 1.1824973420 -0.9380340175
H 2.1062473147 -0.3387876890 2.4976313630
H 0.6928628535 -1.5079503562 2.5082917811
H 1.8789216164 -0.0518645665 0.0227379377
H -0.2289833164 -1.1548859889 -0.7878620442
        
