11

        C -1.8646994506 0.5482326023 -0.0138473584
C -0.4989724885 1.0237086316 -0.4205743253
C 0.6087857897 0.5642451738 0.0848148585
N 1.6507783260 0.1991089574 0.6127531290
N 2.3767137161 -0.8502166127 0.0455776025
N 2.0878211546 -1.9362514421 0.5317981099
H -2.4659212200 1.3807804487 0.3569011306
H -2.3905839210 0.1125390953 -0.8657140040
H -1.7999066477 -0.2054789939 0.7696404018
H -0.4068750212 1.7915897008 -1.1813392350
H 2.7087237626 -2.6133625611 0.0777386902
        
