14

        C -1.8901903631 0.5206801961 -0.7936964122
O -1.2789242067 1.3856901143 -1.3546378734
C 0.7729612828 -0.0406425529 2.1524200618
C 1.1845492306 0.0218467420 0.9062803762
C 1.7412447557 0.6136580614 -0.2705729700
O 1.2372672748 -0.7629610238 -0.1852430425
H -1.5403349007 0.0835987657 0.1588293176
H -2.8354299463 0.1200386775 -1.2052687239
H -1.2601864470 -2.4580070207 -1.6871297314
H 0.3436954522 -0.9511967688 2.5477315091
H 0.8763105680 0.8206572594 2.7950395794
H -0.6493642124 -2.1508552505 -1.3875934073
H 2.8180456574 0.6807383525 -0.3831356956
H 1.1301518550 1.2693954477 -0.8807249878
        
