10

        O 1.8023032534 0.1012238001 0.8849192548
C 1.0204423384 -0.4850922784 -0.1370748678
C -0.3670353831 0.0142449773 -0.1924234490
O -0.7128715366 1.2448716549 -0.7649701030
C -1.6277265817 -0.2219812593 0.1519977526
O -2.0693078063 0.9773764434 -0.3889002408
H 1.8046862551 1.0529777550 0.7646011215
H 1.4882740796 -0.3502050304 -1.1202461651
H 0.9913506640 -1.5551467119 0.0692514210
H -2.2805422830 -0.9274243505 0.6330052757
        
