13

        O 1.0441378377 0.7687242784 -1.4913020463
C 1.2576722861 0.3098389933 -0.2049097634
C 0.3659684855 -0.3362124106 0.5053345399
C 0.0654401287 -1.0449864987 1.7460988021
C -0.9573484570 -0.9487133000 0.6194596401
C -0.1126242541 1.4105421000 -1.7587968122
O -0.4347007308 1.6981863603 -2.8647176261
H 2.2631954510 0.5156076357 0.1375989625
H -0.1195456429 -0.4644043137 2.6420557640
H 0.5407896224 -2.0038676940 1.9155291157
H -1.8182726347 -0.3095514724 0.7768697572
H -1.1574088644 -1.8391810597 0.0350379860
H -0.6887112274 1.6437953813 -0.8492993196
        
