12

        C 1.2490642319 -0.7553193960 -0.6779200821
C -0.8323811956 -0.0148832540 0.6604293777
C -0.7709175646 1.4828341501 0.4827814360
O -0.2110095675 2.0540055461 -0.4101063226
C -0.2403145232 -0.8208459358 -0.4866021765
O -0.9592835101 -1.4809672728 -1.1909728298
H 1.5325706325 0.2723016757 -0.9136209083
H 1.7634039172 -1.0366794192 0.2442149775
H 1.5464565429 -1.4193078932 -1.4860543443
H -0.3179610139 -0.2451889897 1.6011011889
H -1.3068938326 2.0540962895 1.2677239345
H -1.8796411170 -0.2982295007 0.7917307488
        
