13

        C -1.4489719698 -1.4499543231 -0.5471572275
C 0.6927734254 1.8259560990 -0.4271662792
O -0.5780201986 2.0347088219 -0.3209817604
C 1.1819044902 0.8693443985 0.6506712515
C 2.0965852479 -0.1317266640 0.1165177962
N 2.7890395627 -0.9453794078 -0.2980506710
H -2.0046682061 -2.3411662708 -0.8325999859
H -0.3854006533 -1.6851716230 -0.5247821047
H -1.7833498178 -1.1324933168 0.4416789677
H -1.6365085153 -0.6639964176 -1.2778144091
H -1.0287592551 1.5119934153 0.3735886836
H 0.3830859136 0.3614110773 1.2149478288
H 1.7410069762 1.5040232112 1.3489789099
        
