11

        O -2.1463275076 0.4523171824 -0.0081977747
C -1.0885486574 -0.0372241003 -0.7598123624
N 0.0531763520 0.8693070773 -0.7745317021
C 1.0204829524 0.1581991287 -0.3671045410
O 2.2872060173 0.5337697016 -0.2353886667
C 0.5772679090 -1.2154356279 -0.0160360876
N -0.6691006310 -1.3253217014 -0.2068629783
H -2.2287832589 1.3875945971 -0.2088870999
H 2.3562208732 1.4585715034 -0.4994682984
H 1.2079684650 -2.0121186954 0.3617911501
H -1.3793165142 -0.2277980656 -1.8036406389
        
