13

        O 1.3555795030 0.6796031540 1.4477765322
C 0.7607252880 0.3888056250 0.2619054086
N 1.5784056112 0.0798031550 -0.8755769136
C 0.4756945838 -0.8581268723 -0.4822543270
C -0.7832707517 -0.1889853382 -0.9458101693
C -1.5718260357 0.2456209060 0.2177162893
N -0.4431126868 1.0844767111 -0.2060082454
H 2.4477002514 -0.3058417285 -0.5140940637
H 0.6914155428 0.6800240984 2.1414816197
H 0.6689798342 -1.9025251605 -0.2841556716
H -1.1413702183 -0.1336462147 -1.9650826913
H -2.5313128171 0.7126586214 0.0362668447
H -1.5045911048 -0.3159259567 1.1455273873
        
