10

        N 1.9588286039 -0.1276434330 0.0161297285
C 0.5914871439 -0.0391761696 0.0223261491
O 0.0933632275 -0.5489569900 1.1594524163
N -0.1846200631 0.4069673442 -0.8791623375
C -2.9390483774 -0.2085183929 0.3589058360
O -3.7649090670 0.0821774189 -0.3426089570
H 2.4009242513 -0.2829501853 0.9046645651
H 2.4565757736 0.4583035532 -0.6274994564
H 0.3200712243 0.7495375736 -1.6868405080
H -0.8710397170 -0.5050747191 1.0829605640
        
