14

        C 0.8228113098 1.7380663223 0.3679570320
C -1.2412101641 -0.2440741937 -0.9326967966
C -1.8287488655 -1.2053670190 0.0021244622
O 0.7824349298 0.3127402790 0.2880141671
C 1.9213121660 -0.3504644953 0.0582328325
O 1.9611424253 -1.5358028360 -0.0346187222
H -0.0472497235 2.0998702431 -0.1746547546
H 0.7711286340 2.0379367553 1.4146406397
H 1.7367641162 2.1286276820 -0.0844261851
H -0.5730148946 -0.8263791236 -1.5942298023
H -1.2421958157 -2.0867714791 0.2766694421
H -2.6375215333 -1.5590287335 -0.6739869612
H -2.3260662109 -0.7616118505 0.8652335197
H 2.8004146263 0.3109884490 -0.0382148733
        
