13

        O -1.6541937937 -1.0830947827 0.6507687095
C -1.3315178439 -0.9134350904 -0.4965608660
C 0.0876154966 1.3648861200 0.8305505964
N 0.7046628375 0.6671488472 -0.2854288352
C 1.1851489711 -0.6632005999 -0.0816724361
C -0.0035548130 -0.4241142437 -0.9558901150
H -0.4490057259 0.7130835372 1.5253443505
H -2.0496632089 -1.1251390786 -1.3142712184
H 0.8805218946 1.8863502704 1.3678071896
H -0.6059380127 2.1118278646 0.4422162427
H 0.9763261626 -1.1411466587 0.8721753099
H 2.1314510038 -0.9153632435 -0.5465569493
H 0.1207110317 -0.4250129420 -2.0339319783
        
