16

        C -0.8594586722 0.6831101539 0.5286427926
C -1.8586647155 -0.0323691683 -0.3966365638
N -0.9989885403 -1.2326211244 -0.3562107928
C 0.1114886991 -0.4678391904 0.1627035185
O 0.8179929088 -1.0986746078 1.1844535414
O 1.0020052968 -0.1429134741 -0.8554587140
C 2.1121871568 0.6320696684 -0.4510496476
H -1.1460796986 0.6690753664 1.5785843440
H 0.2084097360 -1.7192312362 1.5895916009
H -0.5465423528 1.6836616130 0.2390904631
H -2.8642321581 -0.1978632521 -0.0086823410
H -1.9207810318 0.4317777901 -1.3837814042
H -0.8099278949 -1.7014510220 -1.2326209248
H 2.6514971026 0.9001828629 -1.3578004019
H 1.7936780061 1.5496262737 0.0571038025
H 2.7676371582 0.0666623469 0.2137497271
        
