13

        O 3.0235161395 -2.0067774450 -0.5531035775
C 2.4120058503 -0.9858012415 -0.6411672558
N 1.0479884926 -0.8885710063 -0.2971493437
C 0.3888206980 0.2465820869 -0.4051637033
C -1.5713444798 1.3123157897 0.7481508128
C -1.0469281659 0.1096800802 -0.0307648668
H 2.8069997780 -0.0204818251 -0.9881184040
H 0.6401578819 -1.7658841430 0.0372930730
H -1.3815614271 2.2338965656 0.1979728749
H -1.0768744183 1.3938605977 1.7173563087
H -2.6442868245 1.2225933661 0.9243171644
H -1.5639770104 0.0656920063 -0.9994473291
H -1.2824325141 -0.8311388314 0.4943182464
        
