14

        C 1.6220965263 0.1279864217 0.1632048292
C 1.4760618658 -0.9688614360 1.1612025362
N 0.3508591233 -1.4379223664 1.4980876270
C -2.0764419964 1.3257199165 -1.3374674415
C -2.1526959144 0.3745712676 -0.4380069614
N -2.2917089880 -0.5021938998 0.3850219349
H 0.6548405221 0.4468505030 -0.2239659338
H 2.2530396274 -0.2035858665 -0.6651728150
H 2.1257788038 0.9823210609 0.6225871884
H 2.4079331414 -1.3525482878 1.5928361338
H -1.4273573841 -0.8712624235 0.8120260765
H 0.4431013155 -2.1782124850 2.1886453040
H -1.9938161873 1.0753110673 -2.3848707935
H -2.1154874554 2.3617095287 -1.0344116854
        
