16

        C 1.5340188299 -1.0111645081 0.1956971278
C 0.6091778814 -1.8258110580 1.0480120715
C -0.3496993692 2.3427593625 -0.6670099917
C -1.0688598880 1.7435145302 -1.6035911547
C -0.6825109457 -1.5922454972 1.2507328275
O -1.4329512550 -0.5847770211 0.7429775098
H 2.1565003337 -1.6550115189 -0.4287639559
H 1.0016422159 -0.3342886257 -0.4763442409
H 2.2083381473 -0.4009828765 0.8037639813
H 1.0255368334 -2.6857298181 1.5585888993
H -0.8026833654 2.7257495705 0.2405688726
H 0.7203787060 2.4815664660 -0.7739723452
H -2.1392640980 1.6074266710 -1.4975450404
H -0.6168336632 1.3648972418 -2.5134683633
H -1.2818478925 -2.2364999807 1.8827749174
H -0.8970304704 0.0028780620 0.1977788848
        
