16

        C -2.4588658400 0.0222138773 0.8043135528
C -1.2650344946 -0.5177257304 0.0286704639
C -0.0013002193 0.3075467278 0.2371828469
C 1.1909545879 -0.2162344946 -0.5550684371
C 2.4664014226 0.4870745790 -0.2336073622
O 3.2167993150 0.4782530403 -1.3096887866
H -2.6963488161 1.0444382409 0.4994008440
H -2.2555932986 0.0388440174 1.8778809522
H -3.3496457674 -0.5877225910 0.6439755739
H -1.0706148630 -1.5541061634 0.3260107743
H -1.5057266265 -0.5507030819 -1.0393828978
H 0.2624840609 0.3306481830 1.2985367741
H 1.4013328291 -1.2524593270 -0.2437541910
H 0.9904899209 -0.2496840828 -1.6342643656
H -0.1948739802 1.3469798635 -0.0482059364
H 4.0556307695 0.8988869416 -1.0934518053
        
