17

        C -2.9032768818 0.3244798197 0.0068494770
C -1.4725534321 -0.0962669557 -0.0660982849
O -0.8096534302 0.6018860060 -1.0194721589
C -0.9155975541 -1.0310245978 0.7019145455
C 2.4754490760 0.7722828381 0.9367532976
C 2.8236440665 0.0590208064 -0.1176128303
O 1.9750328200 -0.1328175628 -1.1741456234
H -3.4395335304 -0.2342755440 0.7711734877
H -2.9683580414 1.3910549798 0.2323634096
H -3.3876669678 0.1664563950 -0.9588838665
H 2.3620900612 -0.7271750998 -1.8169942789
H 0.1132628175 0.3123282307 -1.0647388631
H 0.1316249697 -1.2928695984 0.6106149254
H -1.5069027177 -1.5484840348 1.4430229902
H 3.1789233088 0.9059028760 1.7450653785
H 1.4974324090 1.2307565507 1.0146150700
H 3.7956210267 -0.4143461089 -0.2132756757
        
