11

        O -2.6411868477 0.4931393235 -0.2006333817
C -1.3102816535 0.5233939154 -0.0561222555
N 1.4121932974 -0.2331011732 -1.6542562162
C 1.5234028178 0.1447525265 -0.4690068198
O 2.1715752722 0.9879245220 0.2986861381
C 0.5661287577 -0.8960466383 -0.5617070920
N -0.8293804901 -0.6240398307 -0.5108029522
H -2.9815132151 1.3206626767 0.1422378583
H 2.7325914684 1.5438458405 -0.2565779819
H 0.8103115140 -1.9276182338 -0.3260266272
H -1.4533299211 -1.3288989285 -0.8923636699
        
