9

        O -3.0596589898 0.0583338534 -0.1358855904
C -2.1611879407 0.8364321491 0.0198397141
C -0.8567547000 0.4590935367 0.5359878171
N 0.2380150104 0.1355111517 0.2360823911
C 1.4414198282 -0.2653330540 -0.0054485694
N 1.6353147672 -1.6461539207 -0.0406515230
O 2.7760958952 -1.9693853367 -0.2809905120
H -2.2497904382 1.9215568184 -0.1668306230
H 2.2426695675 0.4453948021 -0.1658051047
        
