16

        C -0.5332364937 -0.7504627716 2.3660371460
C -0.6602958175 -0.1436043524 1.0353985908
C 0.6338931835 0.2025946970 0.4542363912
C 0.7141912112 0.4301068355 -1.0376088703
C -0.0762706826 -0.4400401820 -1.9677747931
C -0.4479911022 1.0004445461 -1.7876568700
H -1.3735314700 -0.5357367768 3.0269381117
H -0.6462943485 -1.8168888099 2.1012640786
H 0.4292234440 -0.6444076845 2.8884554149
H -1.3429827773 1.2022961183 -1.2129911365
H 0.7428207660 1.1755850135 0.9852976642
H 1.4798494264 -0.4032710601 0.8189491922
H 1.6980797265 0.7267024959 -1.3838728097
H -0.7343635754 -1.1700867898 -1.5111610385
H 0.3768423998 -0.7504735828 -2.9000928524
H -0.2431478902 1.6911243034 -2.5949582191
        
