12
	
	C -1.5025827138 -0.6667983752 0.5257910765
C -0.1450158470 -0.6100667058 -0.0569188416
C 0.7368951724 0.4015718750 -0.2398986016
N 0.5887821969 1.7534326844 0.0980851892
N 1.8465646467 -0.1539450375 -0.8376474822
N 1.6829177637 -1.3767659997 -1.0121292067
O 0.4128897079 -1.7211058154 -0.5268321466
H -1.7833933416 0.3289507230 0.8642316042
H -1.5312462116 -1.3547154052 1.3718181835
H -2.2263780415 -1.0100598161 -0.2147405846
H 0.6181352179 2.3506517576 -0.7162660904
H 1.3024314500 2.0588501148 0.7445069007
	
