11
	
	C -1.7150130250 0.0315133062 0.0183189772
C -0.2412699923 -0.1782258991 0.0513523788
C 0.7841661065 0.6924624771 -0.1961748981
N 1.8953752155 -0.0514202673 -0.0152388803
N 1.5933301413 -1.2999382400 0.3213788558
N 0.3074473141 -1.3842321442 0.3639598760
H -2.1820527289 -0.6311869860 -0.7114894672
H -1.9573207878 1.0605813818 -0.2462169051
H -2.1557980866 -0.1867327906 0.9919369433
H 0.8113475870 1.7319398794 -0.4745428310
H 2.8597882562 0.2152392828 -0.1032840498
	
