8
	
	O -1.2362864582 -1.5877713019 -0.0233934412
C -1.4515036380 -0.4320006370 0.1799830185
C -0.3639725160 0.6516590090 0.1537447967
O -0.6749219360 1.7935814884 0.3693434941
C 0.9864502778 0.2188758700 -0.1332058607
C 2.0997384174 -0.1510878716 -0.3710100790
H -2.4528326143 -0.0200656773 0.4071779805
H 3.0933284671 -0.4731908795 -0.5826399088
	
