14
	
	C -2.6081806932 -0.4374589489 0.1075274223
O -1.3166613522 -0.2386761442 -0.4061421898
C -0.5788176113 0.7078213836 0.3252119158
C 0.8110917834 0.8052527618 -0.2753861250
C 1.6279824575 -0.4442704537 -0.0697039534
O 2.8124245626 -0.4441475765 0.1281967688
H -3.1068484685 -1.1653609061 -0.5303638865
H -3.1864508397 0.4955026273 0.1042585632
H -2.5760375920 -0.8246464596 1.1341115691
H -0.5237674715 0.4110442357 1.3841448197
H -1.0731330981 1.6886977163 0.2893186085
H 1.3614907675 1.6543375175 0.1322138404
H 0.7097076922 0.9585321939 -1.3553050870
H 1.0621467662 -1.3963457805 -0.1169743647
	
