15
	
	C -1.9725435271 0.1007978957 0.2322365282
C -0.6816124836 -0.4768529289 -0.3280040816
C 0.5872121960 0.0954671891 0.3197335827
C 1.8616306660 -0.5634619094 -0.2121977150
C 0.6519845789 1.5492265481 0.1267222920
N 0.7025268498 2.6833914532 -0.0408911236
H -2.0540152022 -0.0814653114 1.3065336102
H -2.0272473648 1.1791234088 0.0708145273
H -2.8402156608 -0.3530132031 -0.2479379313
H -0.6594338059 -1.5601384634 -0.1803703321
H -0.6289635788 -0.3069075440 -1.4072386838
H 0.5273021120 -0.0661638676 1.4013747902
H 1.8308237277 -1.6359628307 -0.0152159706
H 1.9520317858 -0.4141339263 -1.2892501867
H 2.7505197068 -0.1499065104 0.2636906942
	
