11
	
	O 1.6543610700 0.2128291597 0.5696786975
C 0.6581617379 -0.4983270509 -0.1371562722
C -0.6522308550 0.2066137218 0.1969995887
O -0.6182792422 1.5568373792 -0.1808868710
C -1.7639189948 -0.4552245438 -0.4996402880
N -2.6096123247 -1.0159972301 -1.0320315321
H 2.5183719156 -0.0158538208 0.2258744835
H 0.8207427928 -0.4520921517 -1.2188994783
H 0.6069280952 -1.5466203862 0.1757601536
H -0.8336709439 0.1044306627 1.2756542331
H 0.2191467492 1.9034042600 0.1455369367
	
