12
	
	N 1.7815983573 -0.0458458223 -0.1951259049
C 0.8899363301 0.8248598450 0.3282911636
O 1.1432939381 1.9745042614 0.6205223047
C -0.4972312340 0.2690502622 0.4975357908
C -1.2808595240 -0.1644865882 -0.6825989089
N -0.6910311543 -1.1476705137 0.2136115807
H 2.7329373119 0.2490564785 -0.3163771898
H 1.5212527172 -1.0127260198 -0.2910665797
H -1.0384282098 0.7290611300 1.3157105865
H -0.8289882920 -0.1124797560 -1.6659774565
H -2.3529411027 -0.0079157415 -0.6562563707
H -1.3795391377 -1.5554075357 0.8317309841
	
