14
	
	O 1.9103715361 -1.2401062946 -0.4084595119
C 1.2457148016 -0.0413283207 -0.7484259260
C 0.4356809963 0.5058881374 0.3994987652
C -0.8892075739 1.1712858582 0.1237045118
C -0.8361268861 -0.1814370651 0.7639778690
O -1.1571116390 -1.3190781294 0.0150746930
H 1.2311086567 -1.8944213127 -0.2247591733
H 0.6002161689 -0.1881934912 -1.6214518043
H 2.0229618005 0.6722435960 -1.0276194983
H 1.0209576151 0.8870385915 1.2281226925
H -1.2052950422 1.2062389548 -0.9122090720
H -1.1918618942 2.0196695222 0.7230058594
H -1.0831031160 -0.2559942280 1.8190330792
H -2.1043054238 -1.3418058186 -0.1294924848
	
