13
	
	C 1.9457138522 0.0506724910 0.0814890823
C 0.4522691982 0.0120376070 0.0165064344
C -0.3185720390 -1.0506739170 -0.3732625982
N -1.6337636532 -0.6848505432 -0.2873872918
C -1.7205535889 0.6023308654 0.1526607252
C -0.4474851149 1.0637442371 0.3506731765
H 2.2969354267 0.2038027389 1.1045083809
H 2.3763931359 -0.8839114958 -0.2809862598
H 2.3500335266 0.8611005614 -0.5287785800
H -0.0315882906 -2.0370408641 -0.7023567135
H -2.4124519621 -1.2722878393 -0.5159612165
H -2.6754918721 1.0843784695 0.2862198993
H -0.1814386187 2.0506976893 0.6966749615
	
