17
	
	C 2.6494157970 -0.3611449907 0.3496074218
O 1.5241165699 0.2154123785 -0.2604659676
C 0.3296594060 -0.4505198541 0.0587639515
C -0.8428784940 0.2720372688 -0.5980009728
C -2.1368963783 -0.5142481442 -0.4729545360
C -0.9627333180 1.6716021437 -0.0357870591
O -1.9800857475 2.1437370075 0.3949467613
H 2.5738071967 -0.3252392141 1.4440308415
H 3.5213194411 0.2101469154 0.0350156392
H 2.7785933062 -1.4074157141 0.0434347864
H 0.1892786745 -0.4856189045 1.1508275870
H 0.3635737766 -1.4904717083 -0.2973821872
H -0.5745833849 0.3999114798 -1.6549395392
H -2.9660560413 0.0291935730 -0.9235528605
H -2.0498404113 -1.4842847619 -0.9651273178
H -2.3927439797 -0.6810233317 0.5752406360
H -0.0239464130 2.2579258565 -0.0411517663
	
