11
	
	C -2.4246719921 -0.2894159765 -0.7214289520
C -1.1410026630 0.1580169672 -0.2085532575
C -0.0853347099 0.5373088741 0.2181735382
C 1.1930319129 0.9867116749 0.7270690877
O 1.3660940167 2.0798537957 1.2057802954
C 2.2715823659 0.0127385720 0.6176347171
C 3.1588077690 -0.7863364825 0.5285769156
H -2.8220310001 0.4372771804 -1.4313196243
H -3.1404156048 -0.3927227326 0.0954342218
H -2.3302657039 -1.2528273061 -1.2231275550
H 3.9542056090 -1.4906045667 0.4512622560
	
