11
	
	O 2.6152869305 -0.4228973443 0.2258917671
C 1.5111772059 -0.3248558146 -0.2357587852
C 0.3064426831 0.0579854096 0.5236962501
C -0.7468137943 0.8612511574 -0.2040976745
C -1.0052775340 -0.5654091030 0.1066906270
H 1.3276290142 -0.5279131942 -1.3159816822
H 0.4713227830 0.2571820672 1.5742445647
H -1.2571459427 1.6230269583 0.3684970912
H -0.5432687654 1.1300542295 -1.2333225320
H -1.6989122335 -0.8105831173 0.8987143286
H -0.9804403468 -1.2778412486 -0.7085739547
	
