13
	
	C -1.5712010479 -0.3142771460 0.2947861290
C -0.2888077200 -0.1319126850 -0.4871318868
C 0.5960686805 1.0885545718 -0.1289432784
C 1.6808435607 0.0609482813 0.2215106697
O 2.8222767279 0.1003769698 0.5847668055
N 0.8334741115 -0.9723103920 -0.0609565057
H -2.0054609762 -1.3002396570 0.1163361139
H -1.3864760542 -0.2115816897 1.3661454534
H -2.3080157058 0.4344057606 -0.0030893019
H -0.4771690214 -0.2118836735 -1.5618089560
H 0.8590961670 1.7495103238 -0.9525541918
H 0.2495480625 1.6727448204 0.7227238503
H 0.9958232155 -1.9643354843 -0.1117849010
	
