13
	
	O -1.5927724714 -0.8629165680 0.9182184474
C -1.0544845854 -0.0447638380 -0.0825561255
C -0.2035558624 1.1969536219 0.2705199570
N 0.8903808230 0.7633251754 -0.6506328946
C 1.3779751959 -0.4903658992 -0.0948983032
C 0.1389412532 -0.5200062789 -0.8886088334
H -0.8765078890 -1.2151032542 1.4508498559
H -1.8900009044 0.2226111127 -0.7278765732
H 0.1122846156 1.2810921723 1.3138649545
H -0.6337893206 2.1426959068 -0.0533667938
H 1.3586805970 -0.6259098801 0.9841022003
H 2.2753502595 -0.8597247834 -0.5749111418
H 0.0974982890 -0.9878874874 -1.8647047495
	
