16
	
	N 1.4481218788 0.3924308517 1.3334481887
C 1.2911800577 -0.9007942483 0.9680133583
O 1.8787048166 -1.8127489470 1.5158291884
C 0.3353615012 -1.1557832668 -0.1902214245
C -1.0383801725 -0.4685208679 -0.1102493165
C -1.1890366110 0.7663224132 -0.9753074397
O -0.2952504069 1.7769981127 -0.5232907328
H 2.0881033981 0.5952070826 2.0794608436
H 0.9869222087 1.1365085404 0.8336480590
H 0.8485948954 -0.8576791073 -1.1105421645
H 0.2204581239 -2.2373883970 -0.2285782848
H -1.8071341818 -1.1740901380 -0.4335220581
H -1.2771309444 -0.2110310071 0.9251666385
H -0.9703283670 0.5125507555 -2.0201231609
H -2.2216692360 1.1299391851 -0.9223238558
H -0.2985169607 2.5080790380 -1.1414078389
	
