7
	
	O -2.3626671814 -0.9480846068 0.7467227619
C -1.7436434843 -0.1091826601 0.1572216800
C -0.2879700683 -0.0343994755 0.1916671504
C 0.9090557314 0.0539001265 0.1998599337
C 2.2842015850 0.1450054879 0.2165649140
N 3.4311491759 0.2242004665 0.2277956349
H -2.2301257781 0.6685606410 -0.4546534715
	
