16
	
	C 1.8467680560 0.8624564686 -0.0031967528
O 0.4731421249 0.7440631785 0.2640946846
C -0.2255546740 -0.1578726809 -0.5803706616
C 0.0565803067 -1.6104762639 -0.2358411677
C -1.6932617044 0.1923510824 -0.4123455339
O -1.9515691094 1.5357427660 -0.7390243800
H 2.3987426203 -0.0481477240 0.2554114344
H 2.0279045568 1.0947133500 -1.0602830476
H 2.2253790239 1.6808464113 0.6079438513
H 0.0608184182 0.0462895253 -1.6229997973
H 1.1047161576 -1.8658477482 -0.3954855817
H -0.5421340167 -2.2720245623 -0.8650292070
H -0.1895671141 -1.8070287373 0.8095332161
H -2.2989732597 -0.4248394028 -1.0784128978
H -1.9914201755 -0.0290803057 0.6223076572
H -1.3015712102 2.0588546427 -0.2608274313
	
