10
	
	N -1.1176420946 0.8910428426 -0.2442348824
C -0.7678159226 -0.1808154176 0.4953085146
O -1.4998525154 -0.7321677023 1.2821863946
C 0.6592144491 -0.7140856314 0.3065722509
C 1.4711036206 0.0000771502 -0.6685843356
N 2.0667941710 0.5980433138 -1.4456016327
H -2.0471150721 1.2560510071 -0.1350033520
H -0.4881741740 1.3298887818 -0.8918638154
H 1.1469771871 -0.6849685913 1.2817301120
H 0.5765103512 -1.7630657530 0.0194907462
	
