17
	
	C 2.2632840486 0.6525754811 0.1076482358
O 0.9995399550 0.3614382565 -0.4413402160
C 0.3859869229 -0.7358249274 0.1553708126
C -0.3591279716 -0.5533861306 1.4435038464
C -1.1027902022 -0.7458369415 0.1446867052
C -1.8196111250 0.4223762398 -0.4849994437
O -1.6966556044 0.4250741646 -1.8918638093
H 2.9619283924 -0.1793377824 -0.0414759893
H 2.1891724262 0.8616126634 1.1807938587
H 2.6458694662 1.5338157873 -0.4048654258
H 0.9101089953 -1.6763215557 -0.0020493004
H -0.3480384091 -1.3534738412 2.1714528573
H -0.3695907933 0.4459778860 1.8620589796
H -1.5669704350 -1.7105008009 -0.0244134258
H -2.8881104897 0.3653921280 -0.2694034701
H -1.4441705013 1.3603214380 -0.0605952497
H -0.7608246750 0.5260979349 -2.0870745252
	
