14
	
	C 2.0013277618 -0.0411131822 0.4128064003
O 0.7532633941 0.5059032967 0.7578658710
C -0.1972652881 0.3641324155 -0.2519988291
C -0.8795213290 -1.0053070549 -0.4175264830
O -2.1720940605 -0.4121325381 -0.2315176618
C -1.5902201330 0.8463348996 0.1411427504
H 1.9361879490 -1.1236741824 0.2455377378
H 2.4058715682 0.4278842043 -0.4934110849
H 2.6808334935 0.1457151414 1.2426176591
H 0.1761397834 0.7828359772 -1.1944951060
H -0.6306244240 -1.7072187287 0.3860568032
H -0.7946250292 -1.5019915845 -1.3868747118
H -1.6764899194 1.0397053969 1.2145679098
H -2.0127837671 1.6789259392 -0.4247712552
	
