7
	
	O -0.9545826010 -1.5488401510 -0.0259834047
C -1.0760875120 -0.3634335649 -0.0105548860
C 0.1305471574 0.5811255026 0.0080899791
O -0.0060786177 1.7683304406 0.0232126648
C 1.4551697413 -0.0613325771 0.0068323725
N 2.4947303369 -0.5448142514 0.0064582150
H -2.0436985047 0.1689646012 -0.0080549406
	
