16
	
	C -1.5634430342 -0.4060423760 0.6082031484
C -0.8636498342 0.4361264559 -0.4292855296
C 0.0244221135 1.5743739459 -0.0238966154
C 0.6217683916 0.3628836593 -0.6790937221
C 1.5114604134 -0.5605473962 0.1047701869
O 1.5007445387 -1.8842639545 -0.3968174717
H -1.8597898794 -1.3775201772 0.2032198635
H -0.9355494692 -0.5844535540 1.4825390209
H -2.4708859032 0.0900912434 0.9584659723
H -1.4565749370 0.6110597652 -1.3205653786
H -0.0159264254 2.5003962200 -0.5816256157
H 0.2069305156 1.7023945408 1.0374587432
H 0.9241276684 0.4763904013 -1.7145929130
H 2.5484130940 -0.2256594528 0.0359171031
H 1.2408903373 -0.5440060469 1.1684564707
H 0.5870624101 -2.1712232742 -0.4531532627
	
