12

        O -0.4543393408 -1.3625529853 0.5470766775
C -1.1915713426 -0.2136467420 0.2141696315
C -0.4928961212 0.3653015308 -0.9886967400
C -0.2553857706 0.9564410787 0.3961105049
N 0.9630013306 0.3373138681 0.8772232474
C 0.8001163207 -0.8971113110 0.1268633847
O 0.5887047238 -0.4999232667 -1.2231684800
H -2.2488399030 -0.2437820263 0.4188257527
H -0.9327445721 0.8351317638 -1.8525938894
H 1.7783538878 0.8330006846 0.5333807981
H -0.5417385541 1.9402968560 0.7309586536
H 1.5838343416 -1.6395034508 0.2165244590
        
