13

        C -1.4831915007 -0.6616393119 0.0403320291
C -0.4633183899 0.3100294484 -0.5036324317
O -0.1142063060 1.3586749285 0.4228550154
C 1.2834811646 1.0163279435 0.4143422592
C 0.9925354911 -0.1299298509 -0.5194917861
N 1.7037593987 -1.0319420505 -1.0168831006
H -2.4306865850 -0.1509840959 0.2171020491
H -1.6583546298 -1.4658227487 -0.6779191251
H -1.1391211810 -1.0963268549 0.9795878188
H -0.7945787497 0.7332870887 -1.4599309618
H 1.1531109868 -1.6561462946 -1.6051773431
H 1.6539889389 0.7370917900 1.4042378969
H 1.9078543620 1.8105120083 -0.0047203204
        
