12

        N -1.6966913196 -0.6945926055 1.3652612781
C -0.7531908043 -0.3090718935 0.6381227496
O -0.0310944762 -1.0666320323 -0.2229230609
C -0.2050967892 1.0906577860 0.5591612075
O 0.6399620920 1.0553812296 -0.5737220270
C 1.0029487521 -0.2714452841 -0.8127105770
O 1.1273676696 -0.5165985905 -2.1386992380
H 0.3420647350 -0.1822769770 -2.5857046610
H -1.8713575187 -1.6901113505 1.2552137218
H -0.9919933625 1.8267814522 0.4080894900
H 0.3518981631 1.3380361818 1.4688329795
H 1.9546418591 -0.5369589162 -0.3424038625
        
