13

        C -1.5252665157 -0.0116006774 0.2072028678
C -0.1280205403 -0.2912187744 -0.3437205558
C 0.6570718304 0.9929012234 -0.4871999392
C 1.9489077678 1.0394020229 -0.2635803867
O 3.0844951730 1.1162684462 -0.0583825964
N 0.6577682298 -1.2268430334 0.4531982762
H -2.0960771900 -0.9399669845 0.2818569654
H -1.4608340110 0.4379902016 1.2014180208
H -2.0803214123 0.6734349479 -0.4380047504
H -0.2373790207 -0.7494782223 -1.3332335854
H 0.1922591596 1.9110894820 -0.8204160950
H 0.6672858939 -0.9404589978 1.4251357094
H 0.2635266354 -2.1566816340 0.4115660692
        
