16

        C -1.6447833986 -0.6600546692 1.0751887427
C -2.1345387206 -0.3536562747 -0.1149272634
C -0.1079364945 2.2561763646 -0.0611463827
O 0.2657237644 2.3539638196 -1.1949718700
C 2.2647389290 -0.4042141832 -0.3846230458
C 1.6783673482 -1.5863047432 -0.4791057636
H -0.5997842875 -0.9200328444 1.2054452576
H -2.2681225046 -0.6675541980 1.9623360709
H -1.5107025987 -0.3477702703 -1.0020552412
H -3.1790855130 -0.0985939785 -0.2542358375
H 0.4481765636 1.6626413503 0.6879704387
H -1.0299725717 2.7507338130 0.2960998348
H 3.0308620905 -0.2130633400 0.3590557626
H 2.0048002022 0.4156783613 -1.0457741737
H 1.9372159612 -2.4070913837 0.1805184978
H 0.9171832302 -1.7846198234 -1.2255400270
        
