19

        C -3.6216301593 -0.1413072430 0.1487898284
C -0.3322885043 -0.8167957973 -0.0619445497
C 0.1088101438 0.1992886415 -1.0381556106
C 1.2417371655 0.0084271407 0.0032187975
C 2.5319491355 -0.7256332445 -0.1454303504
C 2.5483804439 0.7515790398 0.0663443231
C 0.1808582843 -0.1101772769 1.1284674424
H -4.4116335410 -0.2515500355 -0.5927919629
H -3.1572061728 0.8384755630 0.0403696725
H -4.0456155530 -0.2320438884 1.1479254009
H -2.8724006971 -0.9193684894 -0.0015245939
H 0.2412327165 -0.1140681839 -2.0707645061
H -0.2420389867 1.2320552490 -0.9477232206
H 2.7691635770 -1.1060776730 -1.1303965375
H 2.8284124088 -1.3667405967 0.6744280069
H 2.7821927154 1.3958985749 -0.7708393561
H 2.8433082844 1.1353535421 1.0340418579
H -0.1643034258 0.9037465076 1.3534600230
H 0.3768401649 -0.6991808298 2.0210223353
        
