12

        O 1.9037787851 -0.7141330493 1.1404489798
C 1.0360273273 -0.2042042888 0.1522798390
C -0.4230407176 -0.2594509298 0.5811567394
C -1.3762996603 0.2497750830 -0.4715107697
C -1.0114120346 0.7238845424 -1.6354062087
O -0.6984820683 1.1448856573 -2.6690759576
H 1.8885292548 -0.1271421596 1.8983522879
H 1.1895575780 -0.8280681337 -0.7311002900
H -0.6697778358 -1.2934856120 0.8360476874
H -0.5482970398 0.3296846894 1.4967851569
H 1.3103459941 0.8241032980 -0.1203036680
H -2.4448435829 0.2359809031 -0.2975077965
        
