10

        N -1.6094270458 -0.4921649819 -0.1370045278
C -1.0795955548 -0.9028032087 1.0058621769
N -1.1660608800 -1.7413233763 1.9470268357
O -0.0672149246 -0.4505885240 1.6836820468
C 2.0467898376 1.4267716108 -1.1300649650
O 2.7786429261 2.1321399769 -1.6847461985
N 1.2036248124 0.7000471335 -0.6552428601
H -1.0487744502 0.1296880907 -0.7008772363
H -2.3158390528 -1.0509232073 -0.5798274568
H 1.2672203321 0.2556314862 0.2532311854
        
