16

        C 2.0365039322 0.0235811477 -1.2242895274
N 0.7538298206 -0.5249299043 -0.8523632647
C 0.5170110880 -0.7661866171 0.3586022644
O -0.7310542897 2.0863338377 1.0613122219
C -1.5347250931 2.0521833590 0.1714957335
C -0.8162121045 -1.3259528585 0.7525662750
O -1.6825060301 -1.4250977270 -0.3433887028
H 2.5138786806 -0.6357516928 -1.9513073711
H 1.8859563834 0.9883862352 -1.7123807218
H 2.7102849939 0.1626056070 -0.3702063721
H 1.2450755242 -0.5836049979 1.1573692990
H -1.9762719437 2.9797160337 -0.2405764030
H -1.8711598188 1.0997543810 -0.2764813694
H -0.6599121786 -2.3089565458 1.2195645536
H -1.2521916142 -0.6749352307 1.5193102848
H -1.1297033503 -1.2569390272 -1.1214988996
        
