12

        O 1.9846831237 -0.1413053672 0.4519749771
C 0.7735591840 -0.4973566437 -0.1539646616
C -0.4290437740 -0.9175784183 0.7541215436
C -1.1954771847 0.2065668441 0.0831605614
C -0.1455957072 0.5882109653 -0.6481555174
O 0.1365343117 1.5330434009 -1.5573198004
H 1.8213447086 0.5865681038 1.0564323325
H 1.0183850169 -1.2443305616 -0.9108771265
H -0.8035098908 -1.9314893421 0.5936077107
H -0.2178072130 -0.7795947352 1.8166378556
H -0.6355270353 2.0874373969 -1.6978005490
H -2.2267935399 0.5275773570 0.1454936741
        
