12

        C -1.7461835388 0.4313368706 -0.2922557236
C -1.1907164257 0.9380613088 0.7783294721
O -0.6926814620 1.3993145050 1.7135557292
N 0.5993060944 -1.6641413130 1.0376839734
C 1.2767019572 -1.3708493285 0.0680013068
N 1.8880171028 -1.2244438590 -0.9709259804
H 0.6516910287 1.7986029769 -1.5780502130
H -1.6430661349 -0.6270532539 -0.4754900648
H -2.3418271826 1.0667209282 -0.9289196898
H 0.9854634191 -1.5345814753 1.9613738216
H 1.2701425798 2.1211670747 -1.8447964079
H 1.8645845618 -0.3256814345 -1.4307112236
        
