13

        C -1.3747449820 -0.4824188130 0.3507178047
C -0.1254706197 0.1875630596 -0.1606487163
C 1.0785862190 0.3395392038 0.7222101730
C 1.1144485020 -0.6110233397 -0.4388414446
C -0.6359967598 2.1284637436 -1.7697904727
N -0.3864398899 1.2538849953 -1.0433313858
H -1.1105529779 -1.2949950576 1.0277982250
H -1.9983264480 0.2294541142 0.8931829674
H -1.9554636943 -0.8946484549 -0.4755533168
H 1.0064748015 -0.0676509162 1.7222154562
H 1.6401277758 1.2594724760 0.6401565729
H 1.0667944557 -1.6737531555 -0.2403297609
H 1.7006616177 -0.3307708557 -1.3027311022
        
