11

        O -0.7440490510 1.8831616244 1.3566181354
C 0.1419477019 1.2399683895 0.8885842166
C -1.2400151731 -0.9637439740 -0.5944487341
C 0.0686451820 -0.9612333785 -0.3874428392
C 0.7545875930 -0.0525615172 0.5661768413
N 1.2397339913 1.3132494344 0.0972990867
H -1.6921291206 -1.6357271404 -1.3134913870
H -1.9015118475 -0.3027126160 -0.0452706496
H 0.7080675252 -1.6502243649 -0.9331306518
H 1.4739074265 -0.5150076281 1.2342309761
H 1.1590717723 1.5860261708 -0.8745789945
        
