12

        C 1.2922847177 0.6963160575 -0.6711647137
C 2.2810503603 1.2951336852 -1.2427669637
C 0.6787866778 -0.6439784413 -0.7320985770
N 0.5457759375 -1.4549578406 0.4696944748
C -0.6624116082 -0.8765338984 -0.1204979210
C -1.3397680245 0.2033638544 0.5498517075
C -1.8899786693 1.1020114696 1.1195363067
H 0.8719600491 1.4749733295 -0.0092327971
H 0.9292885078 -1.2135064990 -1.6182028267
H 0.8214894433 -0.9282778427 1.2912852013
H -1.3149053006 -1.6007664917 -0.5943704529
H -2.3877280909 1.8964606177 1.6243905620
        
