12

        C 1.8134676104 -0.1951593979 -0.3456701597
C -0.5662395207 -0.8903882929 0.7710655556
C -0.2817516092 0.6111211875 0.7032940614
O -1.4653244870 0.8094939388 -0.0975752515
C -0.7858946681 -0.3823306680 -0.6570158864
C 0.5516840085 0.4066457853 -0.6754116946
H 0.2674569866 -1.5627437536 0.9454989831
H 2.5836132830 0.5810995644 -0.5065727760
H -1.4819220740 -1.1403550195 1.3013903800
H -0.0417575342 1.3417014292 1.4723208441
H -1.2536037189 -0.8716716369 -1.5079269024
H 0.4884477237 1.3134648636 -1.2820991539
        
