11

        C -1.5566539705 -0.4171360872 -0.8148976739
C -0.1983672264 -0.2226737350 -0.3410987763
O -0.4861639960 -1.3296672361 -1.1060727323
C 0.4734758117 -0.2220113070 1.0265515171
O 0.3260933542 -0.7911107727 2.0548360608
C 1.4110404758 0.8371653942 0.4532750553
O 0.7032298090 0.7539721283 -0.7995958116
H -2.3224158438 -0.7969713788 -0.1462496981
H -1.8871583817 0.1791448845 -1.6593346974
H 1.3348250525 1.8227900391 0.9165872206
H 2.4557279151 0.5324060704 0.3618125358
        
