14

        C 0.6123954233 0.2047856640 1.6755254464
C 1.0779925177 -1.1266055265 1.1322754101
C 0.7488529007 -0.3165859904 -0.0987352138
O -0.5541408393 -0.6730301019 -0.4794020318
C -1.0637704442 0.6417054825 -0.2191913014
C 0.1894966588 1.0246576248 0.5201413830
H 1.5002107200 0.7062812263 2.0676966714
H -1.2998593274 -0.3527014735 -3.7032348690
H 0.4560101530 -2.0139303684 1.1375014242
H 2.1027036530 -1.3265166130 1.4275210401
H -1.0195446208 -0.6407968479 -3.0746860359
H -1.9716227266 0.6103531759 0.3799573686
H -1.2265338026 1.1926617288 -1.1488641375
H 0.5925657345 2.0286460194 0.4897558454
        
