10

        O -1.7152870810 -0.2858981790 0.1510859603
C -0.8067310677 0.1708102916 -0.7396590583
C -0.0747302796 1.2537573806 -0.5098713444
C 2.2545121768 -1.7394522434 1.8617301049
N 1.6450176909 -0.9783650634 1.2299898302
H -2.1063257829 -1.1034121449 -0.1593609497
H 1.1133147591 -0.3261096058 0.6738413941
H -0.7044403957 -0.4048084488 -1.6561845905
H 0.6278731552 1.5918112945 -1.2573772410
H -0.2012441753 1.8371717186 0.3938608944
        
