12

        C -0.9761124300 -0.1001394801 -0.7013125508
C 0.5342334368 -0.2802104542 -0.5697446547
C -0.1759024729 1.0550971390 -0.2681722893
O -0.2266548198 1.5541623700 1.0108393346
C 1.0379037337 -1.0172670058 0.5901364115
O 0.4873629380 -1.0352225911 1.6708427270
H -1.5642097994 -0.6034094467 0.0566739968
H -0.2409337358 0.8073205617 1.6271736320
H -1.3810917170 -0.1229598267 -1.7038562271
H 1.1243017760 -0.3476732610 -1.4738909823
H 0.0189591246 1.8428732068 -0.9843600301
H 1.9936189659 -1.5554462119 0.4524246323
        
