19

        C 1.9239591570 0.3295775902 1.1123876522
C 0.6624502259 0.6516957377 0.3245495880
C 0.0961174878 -0.5820527330 -0.3807559836
O -0.1955143500 -1.5927146876 0.5403316695
C -1.1490863789 -0.2511484650 -1.1920531420
C -1.0568487604 0.8077003563 -2.2539340300
O -2.1767542603 -0.8439883294 -0.9619197550
H 1.7279617455 -0.4420612410 1.8565317176
H 2.7154600785 -0.0325350348 0.4516406362
H 2.2970462164 1.2159267951 1.6275536682
H -0.1082547238 1.0457132738 0.9943397072
H 0.8760689040 1.4260762562 -0.4177379167
H 0.8470820890 -0.9456732123 -1.1020483395
H -0.7206213086 -0.7670321032 2.9704720741
H -0.9472012367 -0.4941371686 3.6274852114
H -0.0831177218 0.8037790264 -2.7448990614
H -1.8504463819 0.6625117765 -2.9837148630
H -1.1886091604 1.7871520725 -1.7872127132
H -1.1224866216 -1.8288589099 0.3876668797
        
