14

        O 0.6881817439 -0.6426839479 -2.4369018399
C 0.5911061290 -0.0607781141 -1.1543763933
C -0.7419633301 -0.3627527868 -0.4828119605
C -0.9008445041 0.3080183277 0.8629993594
O 0.0309755598 -0.2725143790 1.8147412303
C 0.9990687205 0.3825698301 2.3511024371
H 0.7835747400 -1.5917081822 -2.3408302806
H 0.6931980293 1.0168520938 -1.3061637350
H -0.8635774851 -1.4430482882 -0.3565286553
H -1.5510150386 -0.0247743845 -1.1355312988
H -1.8951019936 0.1386954437 1.2761879688
H -0.7020712108 1.3841794962 0.8171302650
H 0.9412481622 1.4366095423 1.9567043962
H 1.4224964775 -0.3796496510 -0.5143874936
        
