10

        O 1.9903381932 0.0766106390 0.3918089143
C 0.8619495574 0.2043180429 -0.4010723363
N 0.0600426937 -1.0184709302 -0.4286727158
C -1.1110403455 -0.6485368008 -0.1085487475
C -1.1258253685 0.8051293899 0.2036340678
N 0.0359993659 1.2999766008 0.0768113145
H 2.3576662772 -0.7953173931 0.2261087871
H -1.9560808448 -1.3276608485 -0.0648885131
H -1.9859574275 1.3897707449 0.5120250030
H 1.1083838989 0.4343115553 -1.4502427740
        
