19

        C -0.0023207718 -2.1423672087 0.1363617859
C -0.3661038190 1.5210777398 -0.6367180427
C -0.4780506499 1.4955895287 0.8557480565
C 0.9507416236 1.5117588289 1.3030408066
C -1.2273269730 -2.1098736840 -0.7670047222
C 1.7500420883 1.5440961954 0.2292511650
C 0.9269322143 1.5498732403 -0.9827822048
H 0.6919497292 -2.9290642752 -0.1654395243
H 0.5397471110 -1.1952565498 0.1034996321
H -0.2784495128 -2.3321569435 1.1760094691
H -1.2144795072 1.5143432714 -1.3065043720
H -1.0364416980 2.3575960659 1.2383022364
H -1.0065367181 0.6035888067 1.2124074093
H 1.2606214232 1.4978698192 2.3383797015
H -0.9492574744 -1.9028747777 -1.8022717101
H -1.9298820338 -1.3322061468 -0.4592708548
H -1.7626995531 -3.0614714010 -0.7508475890
H 2.8316213246 1.5611879051 0.2386147695
H 1.3171041968 1.5716805854 -1.9915520122
        
