8

        O -0.0232902696 -2.2733501237 0.2378469171
C 1.1419633610 1.0369577219 -0.0252791658
C 0.0208111794 0.3935726333 -0.0293219727
C -1.0807766280 -0.3107178398 -0.0243338370
N -1.0958515523 -1.7547559985 0.1322503462
H 1.6832271482 1.2128291458 -0.9476825327
H 1.5628719324 1.4135359647 0.8997905641
H -2.0649651711 0.1244044961 -0.1304873190
        
