11

        C -1.1171614511 -1.0640621300 0.1605538030
C -0.0862348508 0.0032421199 0.1807222035
O -0.0900357380 0.6975803235 1.2900711458
C 0.7997468911 0.2510757301 -0.8629074231
C 1.7806848738 1.2378463670 -0.8866847298
H -2.1034863239 -0.6210196417 0.3107292148
H -0.9407048829 -1.7540858637 0.9880083642
H -1.0972738589 -1.6077923206 -0.7801809520
H 0.6825810193 -0.4073356935 -1.7204066606
H 0.6155475552 1.3680943289 1.2112836696
H 1.7794007662 1.8308617802 0.0606873646
        
