15

        C -1.0007842082 -0.0242759640 0.5259005619
C -1.4163198066 0.6679538374 -0.7114860915
O -0.6090514607 1.4433718533 -1.3583527582
C 0.6441800753 1.7066249480 -1.1397996295
C 1.3150624434 -1.2265592313 0.7715610630
O 0.3126560330 -1.8781912789 1.5299155108
C -0.0790906779 -1.2169211973 0.3387683996
H -0.5111057347 0.6908330247 1.2088123330
H -1.9014602709 -0.3852061342 1.0273436568
H -2.4212800866 0.6825120577 -1.1012934657
H 1.1840186140 1.1845581925 -0.3671102720
H 1.0785228213 2.4184427587 -1.8193688467
H 2.0313448918 -1.8788455994 0.2803203541
H 1.7342822404 -0.3364114222 1.2355761341
H -0.3626638737 -1.8913558451 -0.4669309497
        
