10

        O -1.6696547195 -1.4642291745 -0.7448753707
C -1.8473054526 -0.5199736896 0.1150865610
C 1.2571220114 1.0899375292 0.5175880520
C 1.1416863061 -0.0513105259 -0.3735856662
N 1.0704968943 -0.9531440850 -1.0807362765
H -0.7233195364 -1.4740456635 -1.0154552309
H 0.6998941668 0.8803172852 1.4285461567
H -2.9320220960 -0.5867818988 0.3583764515
H 2.3056810911 1.2783405507 0.7470229412
H 0.8224673350 1.9669966723 0.0405343819
        
