17

        C -1.8390985813 -0.2665203679 1.4211004618
C -2.0406803183 0.4000803482 0.0905331953
C -1.0476857717 -0.7113510317 0.2305972493
C 0.4242949557 -0.4511996249 0.1462780673
C 1.0188896823 0.0651773467 -1.1670018776
C 1.3665910317 1.3202919152 -0.3728510330
O 0.8170610771 0.8315951871 0.7279286940
H -1.3187315440 0.3014329021 2.1812210093
H -2.6122986154 -0.9247632751 1.7934998774
H -2.9524858999 0.1988087279 -0.4553235323
H -1.6614109156 1.4086455283 -0.0180179842
H -1.3204873350 -1.6662933405 -0.2064961794
H 0.9917110960 -1.2456014651 0.6361185558
H 1.8833176422 -0.4576808945 -1.5762466783
H 0.2990610464 0.2554367304 -1.9645365461
H 4.4741365092 0.3112016984 0.3590647758
H 3.9808949404 0.8520006156 0.2110089448
        
