11

        C -1.4302915550 -0.4456720529 0.0551114848
C -0.0237000324 0.0366487613 0.0080209129
N 1.0470154619 -0.7683777420 -0.1616821051
N 2.1925601035 -0.0823277014 -0.1701834650
N 1.8925273862 1.1588400520 -0.0096363359
C 0.5442758906 1.2781463541 0.1042324574
H -2.1009306735 0.3883328536 0.2538775690
H -1.7303996500 -0.8982453177 -0.8922261862
H -1.5742277508 -1.1863249549 0.8442913804
H 1.0726329115 -1.7671284563 -0.2739541276
H 0.0686069079 2.2346662043 0.2449594153
        
