12

        O 1.4204413976 -0.4120338323 1.9228723115
C 0.5956876492 -0.0507917701 1.1441975935
C -0.7832968658 -0.5900254507 0.7435440991
C -0.8488701392 0.5687535454 -0.2582087074
O -1.6545550578 0.9045407980 -1.0682154881
C 0.5174394284 1.1237601601 0.1608785004
H 0.9333204792 -1.5041973706 -2.1206610135
H 0.3132326417 -1.1965505330 -2.3978667253
H -1.5351311265 -0.5510012550 1.5345208237
H -0.7842049495 -1.5872078019 0.2999080987
H 1.2768929334 1.1261477644 -0.6231003390
H 0.4868356093 2.1094867456 0.6296108463
        
