10

        O 0.5610168949 1.6748739204 -0.8655347920
C 1.1211827788 0.8355778071 -0.2268480066
C 0.6574171260 -0.5916917361 -0.0677700500
O -0.5116899945 -0.8980174902 -0.8249965689
C -1.7091417247 -0.5164762602 -0.4544836690
O -1.6266777746 0.1244794829 0.7058523812
H 2.0681446749 1.0493901717 0.3125172544
H 1.4406655090 -1.2526182933 -0.4450904850
H 0.5201755924 -0.8004200568 0.9962351699
H -2.5197940822 0.3908784543 0.9377447660
        
