14

        C 2.2514377511 0.2218690261 0.2343634822
N 1.1627427600 0.1276250799 -0.7083432066
C -0.0603311389 -0.2253271955 -0.2676045175
N -1.2646336046 -0.0877131275 -1.0870926952
N -2.0746574959 0.8768486990 -0.2698370787
C -1.9663404252 -0.5152089626 0.1174407039
C -0.6612395208 -0.7225777489 0.8283384077
H 2.3705261045 -0.7356733090 0.7452769147
H 3.1762802906 0.4369344505 -0.2980306611
H 2.0820109833 0.9970945252 0.9901405757
H 1.1718754197 0.7250533304 -1.5167621380
H -2.9233018655 0.9879319731 -0.8291632394
H -2.8198866483 -1.1804390928 0.0546424080
H -0.3787256100 -0.9531656480 1.8413340444
        
