11

        N -2.3046420132 -0.3279226290 0.2171193739
C -0.9501304570 -0.3473387696 0.0998840800
O -0.5191080350 -1.5798536539 -0.2050803887
N -0.1226307118 0.6066844552 0.2664373614
C 2.9710881107 0.8156692701 -0.0050819096
N 4.1098377655 0.8283447976 -0.1270647597
H -2.8149177633 -1.1225226183 -0.1226694905
H -2.7766688408 0.5557538106 0.2213226096
H -0.5799919852 1.4770043583 0.5066390784
H 1.8877380303 0.7850123050 0.1059941425
H 0.4424818998 -1.5506033260 -0.2310900975
        
