9

        N -1.2132837715 0.6162924250 0.3510281172
C -0.6280161734 -0.5557729818 0.6706697690
O -1.1806543827 -1.6231916764 0.7591981466
C 0.8385080418 -0.4461279849 0.9275003419
C 1.9421101741 -1.1872565529 0.9527790436
C 2.3313494028 0.3576463020 0.1155254495
N 1.6041220595 0.8364575068 1.0114900282
H -0.7078060254 1.4833376267 0.3675425743
H -2.2034603253 0.6224313357 0.1803035297
        
