13

        O 1.4345015825 -0.0009771210 -2.2243105312
C 2.2607865032 -0.2301483367 0.9487977005
C 0.9643345647 -0.1066971381 1.0669201908
C -0.2896566421 0.0125102323 1.1838270553
C -1.5981769350 0.1321834923 1.2649196659
C -2.4163717329 0.2130278097 0.0427379270
O -3.6141129903 0.3146365660 0.0416220138
H 0.9335548849 0.7494021680 -1.8989789516
H 2.7173783789 -0.2654240051 -0.0345035440
H 2.8934892541 -0.2969159350 1.8263766043
H -2.1142162598 0.1707740006 2.2183190201
H 0.8348790066 -0.7470832159 -2.1658794573
H -1.8395216150 0.1732144828 -0.9046856934
        
