12

        O -2.0542511302 -0.3928456353 0.6049975858
C -1.0268680079 -0.9895494102 0.5851068211
C 0.3536508393 -0.3172233006 0.7788041978
C 0.3244608758 1.1306847257 0.6128258905
C 0.2869641477 2.3161412041 0.4791556440
C 1.3403218181 -0.9717998063 -0.0873749139
N 2.0815188888 -1.5275033845 -0.7620027555
H -0.9387303328 0.1268032281 -2.2408519583
H 0.6350214696 -0.5577602494 1.8135828458
H -0.9707120801 -2.0872004690 0.4594890230
H -0.3233492231 -0.2122362882 -2.4908925614
H 0.2514407349 3.3733453857 0.3561031812
        
