11

        N 1.7662621314 -0.1067560386 0.0880730813
C 0.2831812883 0.1088658560 0.1468007062
C 1.0308242440 1.1054031789 0.5771564391
O -2.3654114071 1.0215796100 0.1374679116
C -2.0894731016 -0.1249363425 -0.1668927311
C -0.7643141522 -0.6779850211 -0.2117898911
H 2.2142303371 -0.7082518136 0.7668754690
H 2.1636294868 -0.1600895102 -0.8442313569
H 1.2922444545 2.1346587210 0.4300763654
H -2.8973726981 -0.8355280727 -0.4385605299
H -0.5984995830 -1.7083025671 -0.4916204638
        
