11

        N -1.1522491280 0.7808486035 0.8097541311
C -0.9416769569 -0.4116270112 0.2096443450
O -1.8095954270 -1.2251427370 -0.0191696234
C 0.4686925890 -0.6985383839 -0.2454327919
C 1.0391678208 -0.0905817726 -1.4750147149
O 1.4206799136 0.2967558513 0.2409803093
H -0.3978159353 1.4143465377 0.9976004541
H -2.0915925005 1.0289463114 1.0631031487
H 0.7517425601 -1.7199315177 0.0005824187
H 2.2949478909 -0.1035469894 0.2798445119
H 0.4179711730 0.7962591082 -1.6824851887
        
