17

        C -2.1927110148 0.1141016565 0.1158479961
C -1.0175802237 0.6320321059 0.4542411519
O 0.0731905687 -2.0137779030 1.0281476260
C 0.8338054465 -1.1214053653 0.2875666105
C 0.4722609819 -0.7993824525 -1.1256403195
C 0.3236585129 0.2640536687 -0.0613134251
C 1.3256396762 1.3962256257 -0.0568811309
H -3.1033839432 0.4470471452 0.5976329386
H -2.3001692685 -0.6312834167 -0.6642519712
H -0.7977998990 -1.6264265310 1.1746731079
H -1.0008668127 1.3918578054 1.2332242627
H 1.8835728044 -1.1988990243 0.5463789236
H 1.2591046705 -0.6609765914 -1.8565323498
H -0.4229386890 -1.2684726500 -1.5133501724
H 1.0337586925 2.1785196650 -0.7617717626
H 1.4057501654 1.8460201680 0.9359511158
H 2.3174683319 1.0436290940 -0.3444476016
        
