13

        O 1.7391214009 0.5506319008 0.3791392925
C 2.0440526786 1.3223247814 -0.6093901460
C 0.9081727003 -0.5911279593 0.0746880666
C -0.4858038300 -0.3332329608 0.5606939862
C -1.4653743025 0.3380960489 -0.3157603221
N -1.5148431362 -1.1080872872 -0.1176839881
H 2.6481795378 2.1196129291 -0.1181401350
H 1.3624932860 -1.4397755722 0.5874438739
H 0.9199714428 -0.7470527308 -1.0040691524
H -0.5850870554 -0.1752119147 1.6304713940
H -1.1579245026 0.6553951827 -1.3052720049
H -2.2244918390 0.9534155851 0.1530177643
H -2.2542513806 -1.3637490031 0.5233533710
        
