16

        C 1.9708081723 -0.1601402342 0.1628641104
C 0.5216394776 0.3094215701 0.0464843191
C -0.2355884125 -0.4184501785 -1.0396402470
C -1.1214467670 -1.2242498340 -0.4725576884
O -1.1828506842 -1.1551134536 0.8813397282
C -0.3462904734 -0.0496786290 1.2686087729
H 2.5207695304 0.0359501166 -0.7597906497
H 2.4876615718 0.3521023470 0.9780051819
H 2.0094595199 -1.2352402439 0.3530585950
H 0.5092640823 1.3915470653 -0.1104540230
H -2.1444759795 1.7616733085 -1.0337070956
H -0.0301813007 -0.3502584120 -2.0966930065
H -1.7956729897 -1.9402519573 -0.9211979985
H -2.4790005126 2.4287211677 -1.0150955472
H -1.0031315053 0.7764284881 1.5532149216
H 0.2368132707 -0.3579111208 2.1373506266
        
