15

        N -2.2280873285 -0.7571259825 -0.1341743037
C -0.9578268037 -0.2569644985 0.3625585940
C 0.2579413810 -0.8144539305 -0.3945834944
C 1.2588031019 0.3264138966 -0.3427045401
O 2.1323780689 0.1493986681 0.7443385047
C -0.8733732980 1.2524206707 0.2435441136
N 0.3552068726 1.4746696815 -0.1425125898
H -2.4578376486 -1.6545973570 0.2696180069
H -2.9592825383 -0.1035861542 0.1141824176
H -0.8228438261 -0.4291526617 1.4443493293
H -0.0400351652 -1.0110420095 -1.4251767429
H 0.6856750430 -1.7207850102 0.0313425947
H 0.7009876120 2.4162056636 -0.2564832985
H 1.8273994170 0.4636003107 -1.2683896468
H 2.8312201120 0.8047907125 0.7094240556
        
