13

        C -2.2055288795 0.2925638382 0.0139704399
C -0.8197798704 0.7851103839 0.3295814980
C 0.2661195954 0.4035438590 -0.2718949538
C 1.4463326270 0.0738839479 -0.8345686610
C 2.4769279911 -0.3628707380 0.2647300447
N 1.9044452747 -1.3244402204 -0.5148503220
H -2.1926916452 -0.4233947681 -0.8064407666
H -2.8532176489 1.1279903081 -0.2608434060
H -2.6473659437 -0.1862769505 0.8909074880
H 1.8086273470 0.5138816204 -1.7512354734
H 2.2003316464 -0.3559911944 1.3281222584
H -0.7356838720 1.5210836064 1.1298233058
H 1.1818163781 -1.9190656926 -0.0922574521
        
