11

        N 2.7878629394 0.7125122630 0.7259571094
C 1.6096917209 0.3932163438 0.5052281449
O 0.5484611840 1.2094721710 0.9751707151
C -0.6304772326 0.7525639921 0.6713232001
C -0.3492235348 -0.5045191298 -0.0862444996
O 1.0745169974 -0.6446096937 -0.1358630170
H 3.4386492385 0.0409161934 0.3350106699
H -3.8327160100 -0.1685725388 -0.5547651562
H -3.4004975665 0.2716104753 -0.1341714722
H -0.7980976624 -1.3631662790 0.4197800882
H -0.7602270739 -0.4375677974 -1.0969837828
        
