17

        C 1.6647478610 -0.8272436729 -0.1821527772
C 0.3134466434 -0.1884426983 -0.0144833435
C -0.5718903489 -0.0044139922 -1.2506487284
C -1.8943302417 0.5551073891 -0.6728513807
C -0.7077177183 -0.6706712101 1.0284765343
O -1.2565435450 0.6940172177 0.9732622029
C 0.1172262738 1.1463293465 0.7120497274
H 2.2882328838 -0.2361328190 -0.8558820446
H 1.5668110698 -1.8252909295 -0.6134257733
H 2.1887193981 -0.9187699289 0.7721247136
H -0.0707062530 0.6506405145 -1.9738843496
H -0.7343986454 -0.9730975332 -1.7335499370
H -1.9226393641 1.6406920000 -0.8491417837
H -1.4616568137 -1.4020084496 0.7515426238
H -0.2957913900 -0.8403099570 2.0252359368
H 0.1332749197 2.0809225098 0.1550870448
H 0.6514262705 1.2305372129 1.6611923344
        
