14

        O 1.2910326122 -0.9343667837 -0.2817701012
C 0.9119348333 -0.5976735599 -1.3716542536
C -0.8639944766 0.8885855219 1.5791604307
O 0.1870858720 0.2234896581 2.0181345049
C -1.6392475036 1.2404830077 0.3643431130
C -1.8804165196 1.6378519314 1.8160147662
H 2.9954851107 -2.7667966336 -1.2001577804
H 1.3350438164 -1.0518776873 -2.2831080422
H 0.1329951566 0.1713201638 -1.5015030620
H 0.6202860975 -0.2147400402 1.2637069730
H -2.2866903809 0.4964655150 -0.1080381952
H -1.2515707819 1.9840070494 -0.3390115718
H 3.2926921967 -3.0770412020 -1.8101237442
H -2.5254590327 2.1973240596 2.4655349627
        
