11

        N -2.3766259576 -0.6416733570 -0.1513994629
C -1.2445925578 -0.2702434370 -0.7194843295
O -0.3370710800 -0.1175137870 0.2552900270
N 1.6575554167 1.1768448587 0.6455961332
C 0.9299186565 0.2734947508 -0.1715754333
N 1.9942190050 -0.2743400122 0.5837294638
H -2.4761603790 -0.7785910654 0.8476405469
H -3.1740243998 -0.8052067353 -0.7364505207
H 1.1642549674 1.2792243718 1.5286544875
H 0.9777547838 0.3972842682 -1.2478078239
H 2.8319105450 -0.3381768558 0.0137079118
        
