14

        C 2.7259413500 0.4707612775 -0.6435702242
C 1.6659940624 0.5384638379 0.1702803974
C 0.3559012702 0.3178952203 -0.3928892634
C -0.6163802756 -0.1247475897 0.5531143274
C -2.0635049359 0.3312548179 0.2635413224
C -1.7089611286 -1.0575249393 -0.0052605163
H 1.8234937870 0.6602541123 1.2466863756
H 3.7448785383 0.4860030833 -0.2708748617
H 2.5714769851 0.3587966780 -1.7105336285
H -0.3876474820 -0.2727458111 1.6102490523
H -2.6413419339 0.5647830104 1.1476229897
H -2.1753733920 1.0099946646 -0.5689625037
H -2.0333466842 -1.8247557146 0.6846307652
H -1.5693331610 -1.3682916476 -1.0300742323
        
