12

        O 0.2354006760 2.2967051127 -0.5024482612
C 0.0328708493 1.2392116653 -0.0028387095
N 0.9797536947 0.0503238032 -0.3928571393
C 0.0135431457 -1.1097392843 -0.5127074939
C -1.1124704386 -0.8434639685 0.4853032080
O -0.4084686974 -0.3307058962 1.6610163218
C -1.0007286913 0.6275296700 0.8035045175
H 1.6399954005 -0.0952263214 0.3656379129
H 0.5434789658 -2.0376097571 -0.3011050412
H -0.3560613133 -1.1165718372 -1.5378406572
H 1.4771712783 0.2964813205 -1.2418759870
H -1.8162418695 1.2434174930 1.1577843292
        
