19

        C 1.0354087640 1.9471460656 1.8176475465
C 0.6241436244 -1.1814790755 -0.5162466907
C 1.6235870408 -1.7666777659 -1.4608318059
C -0.6577919170 -0.9869425771 -0.7893221411
C -1.6443745913 -0.3881499399 0.1704292488
C -2.2120206938 0.9092601869 -0.3494292270
O -2.3025607162 1.9188128510 0.2920436720
H 1.4944993972 2.8257802102 2.2683302191
H 1.1771608189 1.0908773555 2.4770341848
H 1.5051343693 1.7481331742 0.8548586708
H 0.9947305908 -0.8968695411 0.4665310490
H 2.4371211055 -1.0615519882 -1.6490114368
H 1.1673172920 -2.0257481049 -2.4171477980
H 2.0753224609 -2.6690593681 -1.0413570226
H -1.0387406098 -1.2656327897 -1.7704031736
H -2.4952241107 -1.0698797001 0.2997192900
H -1.2026038208 -0.2116694285 1.1516776168
H -2.5615655409 0.8828764793 -1.4040913867
H -0.0284774631 2.1274319564 1.6692801845
        
