17

        C 2.2423301432 -1.1621814729 -0.2981603966
C 1.5587359386 -0.4663235280 0.8379932932
C 0.2636124273 -0.1989855919 0.9641297672
C -0.8216482662 -0.5299026494 -0.0202043525
C -1.2717199582 0.6830280640 -0.8318917442
C -2.0166617439 1.7288196208 -0.0500398087
O -2.3480244761 1.6249492812 1.0992096830
H 3.0107997390 -0.5184154267 -0.7340496937
H 1.5557531458 -1.4471367404 -1.0946354505
H 2.7487480099 -2.0657654323 0.0510344695
H -0.0654738406 0.3278873710 1.8542092969
H -1.6842416363 -0.9268094800 0.5208334193
H -0.4958672432 -1.3086626511 -0.7110012454
H -0.4200057351 1.1751991785 -1.3149237908
H -1.9395782589 0.3863588649 -1.6508081884
H -2.2750055850 2.6437099840 -0.6244473250
H 2.2132933397 -0.1494993917 1.6459540667
        
