14

        C -1.2485074045 -1.2330986072 -0.4794222513
C -0.5885674398 -0.0944559168 -1.1355290130
C -0.1166294887 1.5088102585 0.5043705975
C 0.5828137749 0.4834726748 -0.4277876381
C 1.4527845823 -0.4387840877 0.3931929398
O 2.6184882852 -0.6179531315 0.1724322475
H -1.1172896757 -1.4046093110 0.5944638877
H -2.2976854847 -1.3235644000 -0.7604978383
H -0.7403620942 -2.0620070919 -1.0093611064
H -0.8701175844 2.0763908369 -0.0442686689
H -0.6027732857 1.0120583897 1.3456387990
H 0.6276157018 2.2054939453 0.8878691464
H 1.2270347902 1.0243364668 -1.1234193380
H 0.9566873230 -0.9659990262 1.2339322362
        
