12

        C -2.2879452296 -0.6482352998 0.1117405673
C -0.3082048395 0.4210578239 -0.5592639620
C 0.7981656356 1.0886408729 -0.3244339059
N 2.0067265126 0.4097973709 0.0103078490
C 2.0478647514 -0.7661578906 0.5728547534
N -1.3113797167 -0.1789095944 -0.8573646979
H -2.0352328475 -0.3643784319 1.1352307043
H -2.3388373783 -1.7341430300 0.0384830554
H -3.2640111603 -0.2466812237 -0.1595255036
H 0.8129084420 2.1685390770 -0.3411041572
H 2.8371954085 0.9251855688 -0.2679393950
H 3.1172234216 -1.0315032429 0.6494126922
        
