11

        C -1.5094494448 0.1555159195 0.6685623232
C 0.5185445939 -0.0482364516 -1.2684660631
C 0.7411684695 -0.0726801584 0.0437632053
O -0.1536184647 0.0169719143 1.0438710893
C 2.0851903933 -0.2104362870 0.5553696636
N 3.1595181561 -0.3203183706 0.9419535770
H -2.0742947802 0.2060073440 1.5954933118
H -1.8415675412 -0.7057883167 0.0815438408
H -1.6625256146 1.0725612886 0.0921162021
H 1.3549431539 -0.1336510537 -1.9451987554
H -0.4714289212 0.0527361713 -1.6878313948
        
