16

        O -1.3050192388 0.0690158184 1.4640203871
C -1.4765379626 -0.6428151956 0.2824028445
C -1.3056985003 0.1008819815 -1.0899727271
C -0.2951853230 -0.9794967284 -1.4021682748
C 2.2186883756 1.0332897070 0.4553932563
N 1.3447413131 1.2992707180 1.3244396839
C -0.3768773560 -1.5672661784 -0.2096786837
H -0.4249781519 0.4851162091 1.4511674746
H -2.4456228626 -1.1435137260 0.3515411484
H -0.8877212811 1.1020058230 -0.9664935832
H -2.1888453232 0.1583530061 -1.7313401889
H 1.9894934559 0.2851346401 -0.3032953585
H 3.2015544688 1.5093879569 0.4144026614
H 1.6598869264 2.0073185518 1.9838775263
H 0.2577560365 -1.2134741507 -2.3049626494
H 0.1115404230 -2.4232754329 0.2410274833
        
