10

        O 2.5382400905 -1.1806614007 0.2186302974
C 1.4092343577 -1.0490197445 0.0146428490
O 0.9962748912 1.4614582796 0.5924997612
C -0.1697779569 1.3679589277 0.3243809792
C -0.8167030839 0.1018967321 -0.1457772462
C 0.1224991750 -1.0550154210 -0.2593509593
H -0.8439198807 2.2418795274 0.4152690850
H -1.6413150054 -0.1098618591 0.5471592282
H -1.3016515549 0.3279906265 -1.1041683646
H -0.2467100324 -2.0141526680 -0.5992306300
        
