14

        O -0.8350507481 1.7384794567 -0.3913289525
C -0.7484770487 0.6386638416 0.4719643015
C -1.3645840651 -0.7206352275 0.0975651063
C -0.1945381860 -1.4552709526 0.6909890531
C 1.5484408834 -0.0964957046 -0.5194919608
C 0.5757081359 -0.1454965300 0.6580505047
H -0.5240476298 1.4824081051 -1.2619729595
H -1.1273012053 0.9918188886 1.4306565884
H -1.2297023978 -0.9042680020 -0.9815760540
H -2.3851747740 -1.0154057879 0.3443551840
H 1.0598978693 -0.3183150176 -1.4718967250
H 1.9960321510 0.8957127872 -0.5889391463
H 2.3430111999 -0.8301313974 -0.3839821896
H 1.1383568153 0.0383995404 1.5782752498
        
