21

        C -2.3090514474 1.6913749514 0.2041507903
C -1.8593871220 0.4463331442 0.1646643264
C -2.1898623476 -0.5533510894 -0.8964256898
C 1.0683334630 -2.0114806129 0.4939383664
C 1.6162197543 -1.0141186064 -0.1622542022
C 2.7623437829 -0.1275338335 -0.3476342380
C 1.5132619430 -0.0116080562 -1.2214397547
H 0.6220097911 1.9290210145 1.3165820859
H -2.9758976357 2.0770196477 -0.5604912900
H -2.0336011336 2.3701646261 1.0022866384
H -1.1912828950 0.1007854357 0.9507642178
H -2.6564512202 -1.4412535777 -0.4616639047
H -2.8705207032 -0.1383914145 -1.6411034436
H -1.2827220855 -0.8892525448 -1.4058650291
H 1.5907691200 -2.5045291796 1.3055046643
H 0.0782516296 -2.3745543107 0.2419597272
H 1.2192396366 2.2223391980 1.6532575440
H 2.9375376090 0.6517638458 0.3844464247
H 3.6594996189 -0.5329073164 -0.8008869673
H 1.5869389317 -0.3366824557 -2.2529887608
H 0.8632463102 0.8419611346 -1.0612955050
        
