16

        C -1.9068207503 0.2931560010 0.7790884756
C -1.8507076460 -0.0213266897 -0.7066430677
C -0.4722014638 0.0569048608 -1.3107833128
C 0.6212107485 0.3392087782 -0.6615959054
C 1.7165658271 0.6094900114 -0.0112270237
C 2.5952530103 -0.4193619455 0.6423574856
H -1.2810189319 -0.3944778109 1.3513691822
H -2.9283976479 0.2138109779 1.1540399678
H -1.5493827160 1.3049034884 0.9801434914
H -2.5062288609 0.6604930800 -1.2587090748
H -2.2493860061 -1.0246263046 -0.8916845934
H -0.3942879009 -0.1416297276 -2.3774486863
H 2.0254473610 1.6495642450 0.0644506188
H 2.1787003195 -1.4195093930 0.5266141926
H 3.5957179682 -0.4094827511 0.2028750606
H 2.7075866891 -0.2131628207 1.7095121894
        
