12

        C 1.3607731954 -0.5222147912 -0.5015522095
C 0.3407439136 0.4997211535 -0.0740908831
C -1.0963614684 0.4505285639 -0.3694969480
O -1.5306483588 -0.9286479098 -0.3542105411
C -1.3046968823 -1.0649292499 0.9609827539
C -0.6792901860 0.3015480580 1.0663797822
H 2.1869531924 -0.5541905343 0.2092992230
H 1.7648533965 -0.2605144981 -1.4811031515
H 0.7047788077 1.5242333434 -0.0598144964
H -1.7224740855 1.1716801773 -0.8746036681
H 0.9282792370 -1.5194075066 -0.5651079408
H -0.7264607616 0.9706121938 1.9108830793
        
