11

        N 2.2108072650 -0.9514924655 1.1499266918
C 1.3874610764 -0.7710761773 0.3727474129
C 0.3549038363 -0.5171060529 -0.6295453793
C -1.4482428844 0.2393093664 1.5749847810
O -1.1378326915 1.0832541555 0.6557126178
C -0.2911003307 0.8517402506 -0.5078500650
H 0.8238259380 -0.5559232969 -1.6153910526
H -0.9457266770 -0.7369493418 1.3545479300
H -0.3830993634 -1.3205250855 -0.5965300026
H 0.4630911617 1.6361725671 -0.4649190784
H -0.9363243305 1.0302050800 -1.3673628557
        
