16

        C 1.1567483399 1.3925562270 0.5917756562
C 0.4097929795 0.1474142027 0.1298565313
C 1.3228266042 -0.8052027081 -0.6316798600
C -2.1398992888 -1.5489893772 0.8307219631
O -2.4207106849 -0.3093336700 0.5453726481
C -1.8636266440 0.3637057794 -0.5700745732
N -0.6572639134 0.5769125863 -0.7637229691
H 1.5617753050 1.9310067274 -0.2666602217
H 1.9798396863 1.1128400132 1.2513755806
H 0.4946220460 2.0647355423 1.1390280353
H 2.1529914187 -1.1154667616 0.0046994133
H 0.7850107419 -1.6988481608 -0.9521341484
H 1.7268833577 -0.3147327063 -1.5188360560
H -1.4996072215 -1.9309650160 -0.0066916916
H 0.0192039869 -0.3691627780 1.0166514913
H -2.6494927134 0.7344870999 -1.2206867989
        
