17

        C -1.9194466245 -0.2848863540 -1.0493263983
C -0.3990015442 -0.2067078309 -0.9972557790
C -0.0230861801 0.0205830556 1.5246918884
O -0.4802396790 -1.0655623702 1.7363930835
C 0.1175030677 0.6445154737 0.1500988595
C 1.5502121682 1.1201007008 -0.0188554450
O 2.1981280134 0.9781759449 -1.0150937324
H -2.2432172879 -0.8897534165 -1.8972034547
H -2.3275433340 -0.7358269218 -0.1442875449
H -2.3623775665 0.7079829415 -1.1658887814
H 0.0254150870 -1.2087298989 -0.9036465648
H -0.0069193073 0.2075989455 -1.9274303057
H 0.3375687833 0.6524063634 2.3641897040
H 2.1747625431 -2.0859401784 0.7594713525
H 2.6437034522 -1.7330016841 0.2997140597
H -0.4538755576 1.5867130914 0.2242136599
H 1.9786129662 1.6441381383 0.8613653986
        
