14

        C 2.2361596759 0.7495580990 0.0495395790
C 1.2582504458 -0.3811722431 0.2387283004
O -0.0676281819 0.1513611079 0.0826216848
C -1.0657536674 -0.6552918224 0.2943771117
C -2.3890935294 -0.3116235345 0.1686524473
C -2.7504131702 0.9889981127 -0.2226355555
H 3.2553299088 0.3764980467 0.1593631370
H 2.1296470430 1.1872322603 -0.9428583509
H 2.0674200967 1.5303759362 0.7908836934
H 1.3437715692 -0.8219626800 1.2360642038
H 1.4075455026 -1.1662204426 -0.5077796550
H -0.7903042510 -1.6709315559 0.5934165909
H -3.0753602324 -1.1308599895 0.3970775242
H -3.8542542100 1.0304617049 -0.2576867111
        
