11

        C 1.3547976429 -0.2821668260 0.2338624732
C -0.1223916885 -0.0437409885 0.1394775586
N -0.9561440016 -1.0466060804 0.7067663244
C -0.6037291364 1.0520279056 -0.3952777140
N -1.0559298552 2.1523009888 -0.7084206128
H 1.9180372494 0.5505015540 -0.1855732826
H 1.6403693839 -0.4150661736 1.2797013174
H 1.6394155605 -1.1894805603 -0.3078972104
H -1.2372409619 2.2500687483 -1.7068295355
H -0.8760386255 -1.9284686237 0.2169960043
H -1.9271365675 -0.7741359444 0.7390466773
        
