11

        N 1.6342638459 0.4445909240 -0.3039801680
C 1.1524848138 -0.2387996457 -1.3371527076
O -0.0049509274 -0.8617763046 -1.0964165117
C -0.6683352939 -0.7987242474 0.1649906414
C -1.2941683641 0.5590624597 0.4073936481
O -1.3823544350 1.0580786733 1.4939692694
H 1.2337552290 0.5343660947 0.6220765558
H 2.5030594590 0.9243023142 -0.4543251935
H -0.0227916375 -1.0805560148 1.0011670866
H -1.4758662288 -1.5315501364 0.1006287683
H -1.6850314610 1.0585428830 -0.5012303889
        
