14

        C -1.0374431701 -0.9670977848 -0.3007501785
C -0.9582824514 0.2119670819 -1.2361812690
C -0.8251939459 1.0920228195 -0.0127982628
C -0.3836633680 -0.1308900037 0.8310476049
O 0.9954229357 -0.3227957241 0.9970217999
C 1.8074529935 -0.0432704195 -0.1175910996
H -2.0990951855 -1.1242998050 -0.0724729379
H -0.6238075766 -1.9231639640 -0.6251125427
H 1.3877985026 -0.4373305082 -1.0543344651
H -1.8374205176 1.4015069016 0.2749175909
H -0.2197276620 1.9961003448 -0.0853024553
H -0.8035689278 -0.2303797461 1.8317894473
H 2.7670097581 -0.5276383725 0.0571462579
H 1.9706516150 1.0321231801 -0.2429234898
        
