13

        O 1.9502140895 0.9564841907 -0.0294819872
C 0.8954365638 0.1842900534 -0.5375320234
C 0.4641260418 -1.0124435686 0.3508856241
C -1.5337581744 -0.2232404329 -0.8865612052
N -0.8804018855 -0.4117836264 0.5101972034
C -0.5277137278 0.7376654640 -0.3604155733
H 1.7104343642 1.2931113503 0.8371587841
H 1.1448509716 -0.0613896150 -1.5663900518
H 1.0155439295 -1.0377482178 1.2921121685
H 0.4121506970 -1.9963023682 -0.1102819645
H -2.5243742868 0.1863737361 -0.6466461264
H -1.3627902170 -0.3331710886 1.3915525170
H -0.7005013659 1.7576131229 -0.0223283652
        
