15

        C -2.7943150739 -0.3738758206 -0.0845257551
C -1.3005734408 -0.3254378408 -0.2820587077
O -0.7504101439 0.5707002045 0.6990481230
C 0.5592144548 0.7590141836 0.7301681465
N 1.3145494216 0.1672070655 -0.0829217811
C 2.2828839131 -0.2875688770 -0.7447195190
H -3.0393298645 -0.7360615673 0.9143695987
H -3.2321247384 0.6172073980 -0.2075492597
H -3.2465092679 -1.0452520758 -0.8164125192
H -0.8438555180 -1.3111100568 -0.1514277958
H -1.0368027943 0.0428395257 -1.2780615858
H 2.9458237381 1.5965413465 1.6795593920
H 2.7858380380 -1.1962818463 -0.4258827811
H 3.6937387653 1.6178709223 1.6946313804
H 2.6233575109 0.2220714388 -1.6416699360
        
