17

        C 2.5974556457 -0.1181484372 -1.3481994595
C 1.4867955465 0.0142245734 -0.3561589213
O -0.5125598123 0.4461846156 1.6200437982
C -0.6883416100 -0.6277885440 0.6833257197
C -2.0187974864 -0.0250468135 0.1848221277
C -1.7943038145 1.0040292016 1.2956651060
C 0.4190758959 -0.7674857511 -0.3059036749
H 2.4228817587 -0.9425188272 -2.0412179638
H 2.7085985792 0.8000749893 -1.9311071785
H 3.5525952988 -0.2895692370 -0.8449607781
H 1.5697409169 0.8096559197 0.3794282891
H -0.8264957130 -1.5775437058 1.2162583397
H -2.8992233675 -0.6568489055 0.2822564976
H -1.9631135847 0.3793765026 -0.8241966488
H -1.7148821520 2.0479625307 0.9830867587
H -2.4862849020 0.9326475600 2.1399709463
H 0.2994768009 -1.5826316721 -1.0180669581
        
