10

        O 1.6399947174 -0.2199142076 -0.9591265040
C 0.4031530530 -0.7643179185 -0.8326249236
C -0.5682177254 0.8488635262 0.8488202386
C -0.5914573742 -0.3400930522 -0.0622855434
H 1.7116452115 0.5516748058 -0.3917805719
H 0.3018302668 -1.6375299546 -1.4649795131
H 0.3906839120 1.3734097618 0.8515202852
H -0.7719602790 0.5577865297 1.8820976415
H -1.5082897269 -0.9156000698 -0.1028306207
H -1.3285070552 1.5801285792 0.5640325115
        
