14

        C -1.9335656485 -0.2490988419 -0.0947179751
C -0.4824723604 -0.0981850289 0.2635256751
N 0.1234872728 -1.0299552986 1.1630837132
C -0.0848482096 0.0543772026 1.7964287233
C 1.8837122066 0.6432843819 -0.4334351745
C 0.4088738253 0.5558895030 -0.7414145101
O -0.0613556197 1.0223639340 -1.7520467674
H -2.3285992357 0.7045729580 -0.4421891007
H -2.5068916103 -0.5734110622 0.7741865429
H -2.0752408554 -0.9733719760 -0.9002027165
H 0.4138896430 -1.9895925361 1.2754007952
H 2.0443326407 1.1034395039 0.5446396475
H 2.3332974846 -0.3515756455 -0.3956635204
H 2.3704834670 1.2305249058 -1.2078053323
        
