15

        C -1.4743115198 -0.4355699740 -0.6638908377
C -0.6661974545 -0.0479035470 1.5073049897
O -0.5614759671 -1.2007548945 0.2150216872
C 0.5998546060 -0.6265527073 -0.5973304288
C 1.4851212055 0.1749389061 0.3125197593
C 0.1606933367 0.9025008723 0.6615220623
C -0.3504608840 0.5589084175 -0.8068603849
H -1.6524108057 -1.0232395190 -1.5669573824
H -2.3821608078 -0.1795460079 -0.1285848669
H 0.0025120300 -0.5485552217 2.2243526213
H 0.9068026897 -1.3636300895 -1.3357664802
H 2.0337574218 -0.3223702869 1.1124621592
H 2.1575766174 0.7696957764 -0.3125865503
H 0.1718881416 1.9320790354 1.0112699407
H -0.2579166100 1.2819802403 -1.6107902885
        
