12

        C 1.2653749738 -0.9668125545 0.0987127715
C 0.1594358886 -0.2196861570 -0.6036115513
C -1.2376583898 -0.0994498371 0.0560901800
C -0.3304898176 1.0466441350 -0.0795139620
N -0.0502028218 2.2515786152 0.1196116947
H 1.1865283105 -2.0413545483 -0.0781638164
H 2.2418726905 -0.6304307620 -0.2528904477
H 1.2250433132 -0.7946603873 1.1762656025
H 0.1371318843 -0.3244819525 -1.6847908387
H -1.3631937520 -0.5401715876 1.0397421750
H -0.8204798463 2.7223686980 0.5943699878
H -2.1103564335 -0.1594696619 -0.5839127953
        
