14

        C 1.9167064641 -1.3948676643 -0.0525156074
N 0.6811952322 -0.6525275400 -0.0518497495
C -1.3251176112 3.2529819771 -0.2075738284
O -1.6755665517 4.3642640742 -0.1575953338
N -0.8619016408 2.1469812453 -0.2621782410
C -0.5354912323 -1.2155669926 -0.1560140010
N -1.6130302037 -0.5327734433 -0.2502815800
H 1.7014393730 -2.4525006045 0.1020256705
H 2.5674728666 -1.0652829271 0.7590127610
H 2.4573397306 -1.2922061368 -0.9973231543
H 0.7183030826 0.3558231651 -0.0852562191
H -1.3383766745 1.2174195074 -0.2733106216
H -0.5163066445 -2.3092379387 -0.1430088141
H -2.4306401904 -1.1235307218 -0.2992902813
        
