11

        C 1.2763355670 -0.3646086527 -0.1277858203
C 0.1541614310 0.2407885914 0.6600353920
O -0.4843020385 1.4110185347 0.1136061995
C -1.2381089672 0.2335561888 0.2157320806
O -1.6783287870 -0.3476690501 -0.9476124250
H 2.1603319708 0.2736424728 -0.0857592382
H 1.5391914982 -1.3383114436 0.2898566211
H 1.0178585414 -0.5074118940 -1.1777013790
H 0.3401030948 0.3206489482 1.7299184620
H -1.0319288512 -0.1857116676 -1.6394969088
H -2.0480654594 0.2471899723 0.9390480159
        
