10

        C -1.2988292935 0.0740514495 -0.1070329662
C 0.0247554761 0.1038579312 0.5875023376
O 0.8641236726 -1.2191210763 -0.1037085608
C 0.8980072115 1.1615231660 0.2331314375
N 1.6723352775 1.9944011850 0.0112863108
H -1.2631651242 0.1422296199 -1.2016744380
H -1.8364343998 0.9546105155 0.2567777465
H -1.8833878770 -0.7988944353 0.1829345317
H 1.3484569020 -1.5609312453 0.6559545265
H 1.5089831549 -0.9194201101 -0.7613769255
        
