16

        C 1.4492277607 0.8675347342 -0.1693631895
C 0.0662486929 1.2362009347 0.2879958552
N 1.5041162254 -0.4157779226 -0.8329185887
C 2.2247046898 -1.3085481418 -0.3213026569
C -0.9944691930 0.4633038824 0.2378523375
C -2.4263364960 0.3133988979 0.4994416840
C -1.6030600496 -0.8109231900 -0.1277736292
H 2.1381201946 0.9181835893 0.6902721737
H 1.7864720648 1.6216721825 -0.8887607635
H -0.0313692798 2.2368017097 0.7013129246
H 2.8036065958 -1.1603434886 0.6002555958
H 2.2888873640 -2.2833744768 -0.8019460769
H -3.1260033511 0.8436746312 -0.1363795072
H -2.7567854890 0.1854066169 1.5240120218
H -1.3892960737 -1.6802914562 0.4831829801
H -1.7488386557 -1.0255225028 -1.1795611605
        
