16

        C 2.6381826779 0.9797661476 0.9398665391
O 2.9765666715 -0.1500119735 0.7274671549
C -0.8790542380 -0.2506284165 -0.2924152525
C -2.3485078613 -0.0773728383 -0.0157819560
C -0.2580275682 -1.6040784178 -0.0669264868
C -0.1619389944 0.7454184002 -0.7347627539
N 0.5455230130 1.7055328051 -1.0266041927
H 3.1864529437 1.8444194522 0.5238305325
H 0.6466784583 1.8645366703 -2.0267258275
H 1.7608877296 1.2214955648 1.5668870638
H -2.9410589127 -0.7493490326 -0.6428027491
H -2.6803947233 0.9434022480 -0.2027856282
H -2.5695658616 -0.3225482114 1.0266925771
H -0.4255377504 -1.9247755009 0.9648207230
H 0.8167551408 -1.5940167586 -0.2419645281
H -0.7146267250 -2.3511651387 -0.7221942157
        
