9

        C 0.0526263380 1.1777342712 0.3828375578
C 0.6187683763 0.7620959342 -0.7026763568
N 0.8810446525 -2.1807501410 1.2898155870
N 0.0657236310 -1.6865800577 0.6953483373
N -0.8636097813 -1.2232229325 0.0556433331
C -0.7024836994 0.1663854201 -0.3935851534
H 0.0799394464 1.7926437034 1.2660349722
H 1.4591491436 0.7818485981 -1.3751947414
H -1.5921831073 0.4252352041 -0.9562775358
        
