12

        O 3.4078901677 0.2912744789 0.1890705947
C 0.4071160130 0.0277336603 -0.1076814842
C -0.8477078999 0.8399946535 -0.2974254362
C -1.8115899650 -0.3271106987 -0.3727607473
C -0.6768933679 -0.8250421181 0.4995806398
O -0.4835683565 0.5240891614 1.1207837454
H 3.7563666758 -0.0352859640 -0.6406012675
H 2.4401521285 0.2240446562 0.0942784010
H -0.9444260731 1.8914997118 -0.5398734609
H -2.8005074270 -0.2137972054 0.0778478760
H -1.8643586590 -0.8020992510 -1.3523577591
H -0.5770372366 -1.6735740849 1.1656138981
        
