8

        C -0.9230130860 -0.3767744132 -0.1713753239
N -1.0954957390 0.9927902105 -0.4455462981
N -0.0803015034 1.6887309382 -0.4184109602
N 0.7792617692 2.4046064123 -0.4100918124
C 1.3094089151 -1.3881034194 0.2503633989
N 0.1798295530 -0.9057302685 0.1393961755
H -1.8286678373 -0.9598702793 -0.2341000969
H 1.6589769285 -1.4556491805 1.2897649171
        
