15

        C -1.7627246422 -0.3358126781 -1.0252573605
N -1.4075048967 0.4385685809 0.1420801684
C -0.2584887538 0.3358170671 0.6564060884
N 0.1163494993 1.0904585575 1.7452754083
C 0.8843145313 -0.5450286710 0.1535211805
O 1.2305318613 -1.5011092489 0.7995492500
C 1.5658023066 -0.1123857297 -1.1132007141
H -1.7958701881 0.3079669060 -1.9094438083
H -2.7683884460 -0.7352100627 -0.8865353514
H -1.1010351286 -1.1849625259 -1.2373751803
H -0.6524838905 1.5592401541 2.1986456852
H 0.7714860609 0.6549558936 2.3736724625
H 2.0433560914 0.8548527513 -0.9338342946
H 2.3138552116 -0.8470049816 -1.4035857555
H 0.8416683834 0.0367309874 -1.9149337785
        
