14

        O -0.9883691119 1.5774333595 -0.7732256049
C -0.7520737882 0.9207438680 0.4810854467
C -0.8837806829 -0.5921730509 0.3671860396
C 0.3749999761 -0.9909323631 -0.4115604571
C 1.3849361952 0.0787828476 0.0374929366
C 0.7117157840 1.3079064029 0.5208290100
H -0.8008143580 0.9617023727 -1.4863565991
H -1.3991696127 1.3899352215 1.2191487060
H -1.8211777410 -0.8977455250 -0.1026251546
H -0.8628538133 -1.0268056833 1.3703269448
H 0.2170420529 -0.9391397765 -1.4935324139
H 2.2541793133 0.2402453251 -0.6004214586
H 1.8103799196 -0.2001007167 1.0237836798
H 0.7016498669 -2.0093102818 -0.2010760754
        
