11

        C -0.3352073369 1.1708037434 -0.0664925564
C -1.2095441305 0.1974839976 -0.0982474458
C -0.8915987970 -1.2207407111 0.0335425396
N 0.2915604353 -1.6319695183 0.2575025099
C 1.4110144509 -1.9184274467 0.6341392260
C 0.5400005362 2.1283745222 -0.0462900552
H 0.8413011919 2.5955306643 0.8851142183
H -2.2588779824 0.4434552690 -0.2228328689
H -1.6763388066 -1.9607950580 -0.0566918965
H 2.1574978193 -2.1340860887 -0.1358983294
H 0.9959366197 2.4916556260 -0.9614273419
        
