16

        C 1.7882436240 0.6219961614 0.6906777869
C 0.2485315818 -1.1416093639 -0.5365231992
O 0.9724891050 -0.5344362896 0.9470137387
C -0.8902850298 -0.2165277775 -0.8021297937
C -1.7804956571 0.2451316960 0.3427220259
O -0.4785278750 0.9590046034 -1.5022566146
H 1.1086270222 1.4331857409 0.4482671315
H 2.4384796599 0.4253938153 -0.1621494287
H 2.3598798022 0.8524697651 1.5897624406
H -0.1792551355 -2.0317248183 -0.0497874320
H 1.5573007427 -1.2764294396 1.1280665310
H -1.5022129021 -0.8444967842 -1.4780319812
H -2.2174709067 -0.6124328934 0.8559195005
H -1.2128819936 0.8287388345 1.0688239837
H -2.5862244227 0.8753703905 -0.0362319447
H 0.2577263845 0.6728473595 -2.0515717450
        
