10

        O 2.1587826436 0.5489515799 -0.2546899520
C 0.8465455182 0.3099241600 -0.1415213412
N 0.3967340060 -0.9590393012 -0.0744368000
C -0.9827285393 -0.8768761580 0.0347233232
C -1.2609879886 0.4496076548 0.0259315491
N -0.1017431290 1.1932860024 -0.0851093302
H 0.9619788980 -1.7868714199 -0.1013593915
H -1.6061688015 -1.7513507107 0.1048409892
H -2.2262850137 0.9253142959 0.0911882827
H 2.2609874062 1.5051008967 -0.2896833290
        
