16

        C 1.9637306248 -0.2528439538 -0.1199673680
C 0.6704057980 0.5301826887 0.1414613717
C -0.3677157170 0.3435022983 -0.9870214134
C -1.1009727679 -0.8594347564 -0.5092568620
O -0.9399457174 -0.9586823072 0.7765418718
C -0.0999066373 -0.0687335632 1.2896776042
H 2.4563670786 0.1054962421 -1.0280341112
H 2.6595338471 -0.1394485222 0.7125761790
H 1.7539721015 -1.3179788813 -0.2499541954
H 0.9002934993 1.5848801077 0.2877744275
H -1.0515972463 1.2073975272 -1.0031952676
H 0.0743350771 0.2429890018 -1.9790254713
H -1.8902443591 -1.4442760126 -0.9508817989
H -3.1825925690 0.9066895856 0.5450221490
H -2.6514002840 1.0791883606 1.0440692294
H 0.2751942714 -0.3328718153 2.2675616553
        
