11

        C -1.7388265635 -0.5387326553 0.1196664540
N -0.4532333425 -0.7614933530 0.1708509774
C 0.5937804398 0.0807585311 0.0082460869
N 0.3108941395 1.4276331727 -0.2613516764
C 1.8820826897 -0.4700782168 0.1273122361
N 2.9486943840 -0.9085440100 0.2216279108
H -2.0818053631 0.4621044411 -0.0828684229
H -2.4038874008 -1.3694529672 0.2836596920
H 0.6461549508 1.7454321550 -1.1594612385
H -0.1737125805 -1.7161520194 0.3641918790
H 0.6186856465 2.0641089218 0.4600231018
        
