13

        C 2.3498976122 -1.1896758703 -0.1508923459
C -0.4252424874 0.9986001670 0.3369380947
C -1.1568083380 -0.0190593355 -0.1104962068
C -2.3453175564 0.8914854445 0.0381848618
O -1.4265633437 1.9246623013 0.5175689278
H 1.8340231925 -0.7904251145 -1.0233198342
H 3.0705893560 -0.4576107585 0.2109162462
H 2.8723308250 -2.1043758577 -0.4261306992
H 0.6054018404 1.2385315562 0.5605230167
H -0.9873246422 -1.0303665545 -0.4335808820
H 1.6255877970 -1.4067175089 0.6333610385
H -3.0733477570 0.6444762541 0.8114982800
H -2.8403294983 1.2221442766 -0.8754374976
        
