16

        C -2.4084557802 -0.8116065277 -0.2499751136
C -0.9207557540 1.0806978970 -0.9545036339
O -0.0079301285 1.7652932166 -0.5684258593
C -1.0300644420 -0.4026554133 -0.7640275219
C 3.0086836115 -0.3999104057 0.0869297558
O 3.9210559105 -1.0985517471 0.4622378203
N 2.2980641677 0.4450746967 0.8615118090
H -2.5984310832 -0.3966258558 0.7411994935
H -2.4826496829 -1.8962960415 -0.1778672943
H -3.2008207600 -0.4680564438 -0.9183228733
H -1.7638147576 1.5537889128 -1.4995100230
H 2.6584521661 -0.3999624897 -0.9628218583
H -0.2306539053 -0.7371269151 -0.1013914825
H -0.8568611038 -0.8551376151 -1.7479265976
H 2.5622396440 0.5559553448 1.8250649261
H 1.5733968980 1.0253193866 0.4624654530
        
