12

        O -0.2837915062 2.2288349967 0.2979069700
C -1.3281167020 -2.1451676109 -0.2491664846
C -0.1573755332 -1.5386535207 -0.1638850102
O 0.0742024344 -0.3141753954 -0.7149896615
C 1.0150343716 2.3617238273 0.4825692514
O 1.8520310744 1.5293262650 0.2322876318
H -0.4642903584 1.3378050513 -0.0742491168
H -2.1643387024 -1.6908431730 -0.7649238111
H -1.4596981262 -3.1186705119 0.1994664799
H 0.6929154444 -1.9823625550 0.3451216340
H 0.9644791341 0.0080987741 -0.4938357584
H 1.2555774695 3.3461738525 0.9019128756
        
