15

        C 2.3782742537 -0.8411541226 -0.0658552085
N 1.1844786515 -0.3316650080 -0.0194071969
C 0.9400704133 1.1359422010 0.0940592204
C -0.5503341483 1.1717165040 0.1120761661
C -0.9649603258 -0.1000724730 0.0162991345
C -2.3555715028 -0.6278723888 -0.0164772083
N 0.0651507745 -1.0274684993 -0.0651489869
H 2.4724906130 -1.9115546730 -0.1490757701
H 3.2254329297 -0.1770535924 -0.0208790363
H 1.4172973699 1.5007348035 1.0053662823
H 1.3979571795 1.6310385924 -0.7643166566
H -1.1476128965 2.0648378070 0.1840678063
H -3.0833178028 0.1760470209 0.0839923055
H -2.5055164255 -1.3457903910 0.7919106787
H -2.5349860832 -1.1550247805 -0.9554465305
        
