11

        C 1.3383922335 -0.7864864245 0.3255315614
C 1.4239378059 0.6117451583 0.2106679117
C 0.7436857480 1.6342016633 0.1797283394
C 0.0430710080 -1.1861055515 0.3813122214
N -1.0543603277 -0.3500309451 0.3561540199
N -1.2630721564 0.6720491235 -0.6365911378
C -0.4316927166 1.6281297621 -0.6866369519
H 2.1612739104 -1.4831829963 0.2970729498
H -0.1963588280 -2.2425454729 0.4757901480
H -1.9213365857 -0.8568182210 0.4042234845
H -0.6105030913 2.3850029041 -1.4419945464
        
