11

        C 0.0155955000 -1.3889034446 0.0846349051
O -0.8794051997 -0.2618510662 0.0292129275
C -0.2668016292 0.8832402028 -0.1665230952
C 1.1712872405 0.5432684844 -0.2577687333
C 1.3433146410 -0.7723174778 -0.1128616134
H -0.1066651166 -1.8763377998 1.0547188354
H -0.2686338975 -2.0925923170 -0.7011807909
H -3.0802571031 2.8712130131 0.7002258485
H -2.4564507800 2.5516262176 0.4379137811
H 1.9387115838 1.2853382428 -0.4201989040
H 2.2669147606 -1.3348050551 -0.1283901609
        
