16

        C -1.5996513419 1.1306202774 -0.0045765465
C -0.9377284099 -0.1835939278 0.3911457437
C 1.0960574870 -2.4237215432 0.5694771252
O 1.0734900643 -1.3093654228 1.2087189097
C 0.5567978895 -0.0494183854 0.6296896897
C 1.3768783413 0.3419272922 -0.5802223611
H -1.4115439500 1.9086695771 0.7392282767
H -2.6798140744 1.0046436077 -0.0845974771
H -1.2408117466 1.4944863880 -0.9687191313
H -1.3910606815 -0.5636876241 1.3101217504
H -1.1121915343 -0.9359672850 -0.3841293941
H 0.6772646646 -2.2445249320 -0.4595070674
H 0.7338113708 0.6612628045 1.4391150940
H 2.4388371913 0.3566705440 -0.3332582428
H 1.0936051281 1.3405611016 -0.9131737750
H 1.2173646018 -0.3477284720 -1.4112205945
        
