10

        O -1.9303375865 0.5688053547 1.1305614661
C -0.8286020842 0.3858058036 0.6931678839
C 0.4748213577 0.8574107950 0.7675176325
C 1.2847024354 0.0954566330 -0.0908086310
N 0.7316857782 -0.8697535365 -0.7791020690
N -0.6442332297 -0.7977282779 -0.3708054608
H -1.2422754398 -0.6228769587 -1.1756954772
H 0.7871755007 1.6756675049 1.3918022223
H 2.3488343606 0.2461650046 -0.2315917656
H -0.9343160922 -1.6781073225 0.0497501989
        
