13

        N 1.8283346590 0.7316537787 -0.7787890833
C 0.6359595994 0.3725704883 -0.6274508137
C 0.0332040045 -0.8760950283 -0.0771656221
O 0.8662021307 -1.8252885245 0.3537088952
C -1.2981831774 -0.7577086102 -0.1387140248
C -1.6668746498 0.5583472405 -0.7200945282
N -0.4910724051 1.1385879956 -0.9722484170
H 2.4623401138 0.0043322910 -0.4534353448
H 0.1691599578 1.4238042622 2.4324620668
H 0.3682949691 -2.5758228111 0.6885327320
H -2.0345047195 -1.4824506544 0.1780349811
H -0.4928069313 1.4113841640 2.0898397485
H -0.3928435514 2.0550574082 -1.3753345896
        
