10

        N -1.5886996650 -0.9351411270 0.1783311440
C -0.3061380333 -0.7736339690 -0.1669362924
N 0.5177470168 -0.9872049717 -1.0907482948
C 1.0222963881 -0.3600145254 0.1837626779
N 1.4252622747 1.0305363457 0.1374865199
N 0.5115005403 1.7849143821 -0.1944127706
H -1.9339776339 -0.3827851200 0.9414271838
H -2.2431073982 -1.1396867127 -0.5583138077
H 1.6923036798 -0.9516270935 0.7981990799
H 0.9028558307 2.7333227914 -0.2318314399
        
