13

        O 0.5031894297 -1.3588490985 2.9517355639
C 1.1652885725 -1.0767007490 1.7949709828
C -1.1867043549 -0.2004576273 -1.6722598343
C -0.2627662293 0.7401725679 -0.9674281206
C -0.8643529598 1.2285331018 -1.9998170570
C 0.9094890993 -0.0968590060 0.9758250533
C 0.6536132483 0.8775119807 0.1375254500
H -0.2099378578 -0.7252819961 3.0675406695
H 1.9688742767 -1.7785983287 1.6065861710
H -2.1478560767 -0.4469070393 -1.2212534083
H -0.7706349787 -1.0008044607 -2.2836164980
H -1.0514493600 2.0465137599 -2.6722562806
H 1.1418871907 1.8419348954 0.2567963083
        
