17

        C -1.9009464434 0.0806887135 0.0250817524
C -0.6244191290 -0.3120952603 0.7568793246
O -0.6405376443 -1.6867220434 1.0887153953
C 1.7334405440 -0.9299054290 -0.1611737213
C 1.0249232253 -0.7457317865 -1.2241773206
C 0.6330339597 0.0763599550 -0.0322638178
C 0.9503206393 1.5589472211 0.0140206803
H -1.9491062960 1.1570016211 -0.1510439368
H -1.9500692830 -0.4239105297 -0.9443115473
H -2.7746489179 -0.2120609051 0.6080849073
H -0.5895218891 0.2051594597 1.7210424334
H 2.5590254280 -1.4182457163 0.3272920651
H 0.8453180677 -0.9752336758 -2.2611343581
H -0.4512404114 -2.1901739262 0.2918947575
H 0.1532265189 2.1568346861 -0.4353386442
H 1.0764693192 1.9001667695 1.0453925721
H 1.8717133119 1.7726058463 -0.5287145422
        
