13

        C -1.6163286056 -0.4913477813 0.9189051897
C -0.4828242132 -0.2509387060 -0.0203209246
O -0.8687087201 -0.4720512404 -1.3099265310
C 1.8978163938 0.3701462284 -0.5797304933
C 0.7414903624 0.1262229814 0.3432032750
H -1.3098425660 -0.3247069350 1.9497556855
H -1.9793045488 -1.5163498963 0.8169707526
H -2.4483600555 0.1755829310 0.6831862357
H -0.1351334253 -0.2848441985 -1.9003228656
H 1.7879965820 -0.1272484759 -1.5482535818
H 2.0493453848 1.4356244211 -0.7767034391
H 0.9108562488 0.2812247617 1.4014206030
H 2.8244501627 -0.0116420899 -0.1475089059
        
