16

        C -1.4980236870 0.0866099992 -1.0236479761
C 1.5602130476 -0.8818329363 -0.0340333418
C -2.3153362290 -0.2597314202 0.2128753273
C 1.3732214801 -0.1844318865 1.2705562939
O 2.7610589976 -0.0374462053 0.8096638954
C 2.2894223275 0.3173138436 -0.5364362837
H -2.1275741584 0.1422392588 -1.9137545216
H -0.7292144728 -0.6666758940 -1.2122949009
H -1.0010623605 1.0539445005 -0.9159508625
H -2.8112109690 -1.2254764850 0.1017794399
H -1.6863202629 -0.3197870598 1.1038101581
H -3.0865415047 0.4887859105 0.4051763390
H 1.3020737994 -0.7925262564 2.1680406468
H 0.8927841279 0.7948918540 1.3511371907
H 3.0555826294 0.1673646749 -1.2918511572
H 1.8474582350 1.3176071019 -0.5343412473
        
