19

        C 1.8372160759 0.5563523663 0.0994902073
C 1.7487703004 -0.8692936982 0.5476289785
C 0.9652496785 -1.8260544606 0.0602564064
C -0.0239697447 -1.7160886431 -1.0583371106
C -1.7006012634 0.8563065559 1.2068553478
C -2.0030142679 1.6855004550 0.2228069002
O -1.3906869912 1.6344555676 -0.9926572446
H 1.6165656182 1.2331120593 0.9296380190
H 1.1431973133 0.7918882171 -0.7055001963
H 2.8505722330 0.7892767598 -0.2389897577
H 2.4086895390 -1.1390536705 1.3686576033
H 1.0397397643 -2.8092753748 0.5186719045
H -0.0993690190 -0.7077169635 -1.4617494794
H 0.2432302442 -2.3940553742 -1.8736333565
H -1.0211871040 -2.0095897313 -0.7186378779
H -0.9426478759 0.0908181415 1.0953069303
H -2.2198217547 0.9407652110 2.1502140921
H -2.7611935709 2.4561494838 0.3341282802
H -1.7433471753 2.3162020989 -1.5640566463
        
