17

        C 2.8224710610 -0.8493388159 0.4052006039
C 1.5414678108 -0.8135731688 -0.4045403392
O 0.9037176476 0.4553386640 -0.3588809755
C -2.4496848177 0.7895663147 0.4204022057
C -2.4317010719 1.8842163777 -0.3285278507
C -1.9156604762 -0.4846031658 -0.0973409943
O -1.8051590965 -1.4833434186 0.5680216875
H 2.6185069047 -0.6795286388 1.4660421473
H 3.3072174374 -1.8237130995 0.3152057840
H 3.5185768146 -0.0818300230 0.0630153917
H 1.7528093914 -0.9929035396 -1.4602411799
H 0.8514026250 -1.5964177566 -0.0680524517
H -2.8363199587 0.7799256572 1.4340756076
H -2.8068676635 2.8344684113 0.0307488410
H 0.7214153536 0.6686500169 0.5589894328
H -2.0203035109 1.8609469943 -1.3325516510
H -1.6103244510 -0.4661238097 -1.1608962591
        
