12

        N 1.9541056930 0.9999988533 0.2488990532
C 0.7171297590 0.4332260620 0.0665129151
O 0.7054967849 -0.9092496396 0.3184353406
C -0.4700124066 0.9191636450 -0.2955460086
C -1.3934422037 -0.2657666112 -0.3922773540
N -0.6727703356 -1.3090467787 0.3585839107
H 2.7037390812 0.3319485637 0.3155777224
H 2.1625053322 1.7774301010 -0.3524872708
H -0.6958501354 1.9373315775 -0.5636541571
H -1.5526766652 -0.5999479354 -1.4241822845
H -2.3737361104 -0.1247681252 0.0684604727
H -0.9039157934 -1.1787437123 1.3414876601
        
