14

        O 0.8551585074 -0.5340734653 -3.0634553010
C 0.6445957512 -0.1466258918 -0.1420407440
C -0.8248803911 -0.2200161963 -0.1316922517
C -1.3007669399 0.3442579311 1.2087478548
O -0.1939925891 0.1412579507 2.0694563229
C 0.9568108569 0.1848202907 1.2444532820
H 1.6955076740 -0.6688693751 -3.5011836896
H 1.0621077076 -0.4210995341 -2.1182257512
H -0.9242992826 -1.3241829750 -0.1465672899
H -1.3116433752 0.1275231375 -1.0423319828
H -2.1660667665 -0.1639157456 1.6321728110
H -1.5297018828 1.4148025609 1.1175153851
H 1.3235540011 1.2292301117 1.1048670108
H 1.7786447290 -0.3685277994 1.7003763435
        
