10

        O -1.6348126983 1.1233201864 -1.2993986122
C -0.8764112427 0.6148500940 -0.5850265512
N -0.1898779280 0.0144279371 0.2008223786
C 1.2036473824 0.0202287560 0.5393420900
C 2.0798294893 0.3445511574 -0.5933156602
N 2.7572883899 0.6049705927 -1.4802528728
H -3.4254685197 -1.2949152418 -0.0643187940
H -2.8182903532 -1.5874093809 0.2534031063
H 1.3951348640 0.7382364528 1.3402471460
H 1.4780706163 -0.9658145536 0.9149507693
        
