10

        O 1.8827702994 -0.3242043224 0.1060043954
C 0.5556949178 -0.0353994466 -0.0064342765
C -0.3411608735 -1.1869436373 0.1071604570
N -1.5981622584 -1.0428720720 0.1096869023
C -0.3723432287 2.1931844234 -0.5823689117
N 0.1284217755 1.1386623540 -0.1876436712
H 2.4001726566 0.4512116994 -0.1257242338
H 0.1802609940 -2.1456763999 0.1793400860
H -2.0654228679 -1.9428456900 0.1737799659
H -0.6727664147 2.8741220913 0.2261162866
        
