14

        N -2.4451363618 -0.5489023102 -0.1582697080
C -1.1267627097 -0.2768603739 -0.1092854723
C -0.1099850567 -1.2423636731 -0.0714542086
C 0.9879328964 -0.4352032887 0.0715242629
N 2.2790606736 -0.8492388227 0.1641743426
C 0.6870604232 1.0455163632 0.1442204676
N -0.7409933632 1.0469142382 -0.0987686360
H -3.1072210891 0.1408625977 -0.4632639644
H -2.6778031094 -1.5174694480 -0.2878456216
H 0.9271834845 1.4563095694 1.1296799220
H 3.0362039076 -0.2107821725 0.0064860131
H 2.4423313897 -1.8176013851 -0.0502319453
H 1.2252459795 1.6231998480 -0.6132736282
H -1.3136090645 1.7229588577 0.3804611763
        
