15

        O -2.4223059520 -0.7843333234 -0.9725926943
C -2.4082391942 -0.5437268339 0.2022553636
C 0.6627631108 1.4335069433 1.4304354321
N 0.1016924251 0.6389983715 0.6345971860
C 0.6962573960 0.4328543319 -0.6727694533
C 1.1196739909 -1.0181950202 -0.8403370395
H 0.2623179427 -1.6816129066 -0.7243594147
H -2.0418718421 -1.2717368898 0.9473251942
H -2.7815649235 0.4131330001 0.6092078310
H 0.2348168246 1.5954799012 2.4182954161
H 1.5776880640 1.9844528971 1.1784104815
H -0.0687576562 0.6704161679 -1.4164007195
H 1.5489073907 1.1076332600 -0.8344105634
H 1.8745172653 -1.2900591520 -0.0999614992
H 1.5405621578 -1.1758207472 -1.8344545204
        
