12

        N 2.2441619651 0.4357939984 -0.9938620364
C 1.5218035443 0.7559662920 -0.1594233157
C 0.5880695270 1.1213962170 0.8646239096
C 0.8610647823 2.0421395419 1.7789889738
C -1.6752244530 -2.1500970927 -1.3111753704
N -0.8758869026 -1.2571603400 -0.9217368365
H -0.3513899832 0.5813163096 0.8248751805
H 0.1324258488 2.2924620079 2.5389784763
H 1.8079126840 2.5669933221 1.7960923959
H -1.4691146120 -2.8488165171 -2.1272784601
H -2.6411462440 -2.2496472960 -0.8149588734
H -0.0119101567 -1.2655404431 -1.4631070437
        
