18

        C -2.4242029401 0.3692032258 -0.2055395239
C -0.9823669625 0.1402290815 0.2251998437
C -0.0975099160 -0.3503614722 -0.9158493932
C 1.3499112604 -0.5998229310 -0.4895887428
C 2.0449488112 0.6744655068 -0.1014836080
O 2.6307481428 0.8589415116 0.9301729357
H -2.8677480957 -0.5496210050 -0.5971441940
H -3.0406839350 0.7056803734 0.6293794227
H -2.4873712068 1.1260769473 -0.9912895142
H -0.9488791300 -0.5882196616 1.0413671347
H -0.5706818986 1.0675736900 0.6380133382
H -0.5097731765 -1.2763487480 -1.3263201316
H -0.1169351534 0.3774758215 -1.7355709225
H 0.9944988695 -0.8159849694 3.3775892499
H 1.4119261007 -1.3030415243 0.3430327463
H 1.9837559074 1.4866408226 -0.8601969728
H 1.9106028532 -1.0223397454 -1.3314383826
H 1.4334574693 -0.4074489239 2.9330767141
        
