11

        C -1.9828801030 -1.2993117836 0.1457325528
C -0.7817144318 -0.4189261849 0.2824034797
O -0.4930179238 0.1841395620 1.2825768121
C 2.1460192877 1.4578820798 0.0491139060
C 3.0052904608 1.7121408592 -0.7431248468
H -2.6039338935 -0.9385998182 -0.6783239186
H -2.5570107046 -1.3179338926 1.0697560349
H -1.6616985095 -2.3098274616 -0.1201216478
H -0.1362200540 -0.3404980409 -0.6168814729
H 1.3686264317 1.2207274298 0.7482872703
H 3.7731444400 1.9430042510 -1.4435621697
        
