13

        O -2.9125153316 -0.6053563795 0.2356270326
C -1.7827737568 -0.2448387037 0.1413646466
C -1.1334286806 1.0888219086 -0.2808746040
C 0.1509939425 0.3820298856 0.0253615620
C 2.4241716113 -0.0353521603 -0.1532960736
O 1.3499326670 0.7042989758 -0.2631940697
C -0.4308108614 -0.9404756881 0.3893257526
H -1.4156120500 1.9399537142 0.3458679839
H -1.3227596834 1.3458511218 -1.3294480498
H 2.3456329555 -1.0128938697 0.2991197891
H 3.3416189182 0.4650419963 -0.4034376760
H -0.2175192609 -1.7589575652 -0.3155286784
H -0.2797884698 -1.3193182357 1.4066383846
        
