13

        C -0.5687536398 1.4848458987 -0.7834414776
C -1.0641002227 0.0453658486 -0.9074721879
C 1.9995442150 -0.8453121712 0.6617379662
O 1.6732691687 -1.4480240752 1.7532873091
C -1.0752477784 -0.6430382473 0.3786129357
N -1.0943762304 -1.1737900434 1.3972818343
H -1.2083830479 2.0664604415 -0.1193866534
H 0.4473965257 1.4904422787 -0.3906968080
H -0.5705339670 1.9588057986 -1.7648101335
H -2.0755605374 0.0026751910 -1.3179593982
H -0.4102739619 -0.5297618220 -1.5649546728
H 3.1121664868 -0.8934270053 0.6561016148
H 0.6917619893 -1.4523860930 1.8346986711
        
