15

        C -2.2386693725 -0.1571540915 0.2225678351
C -0.7817533406 0.0685103234 0.0177219582
C -0.1780809701 1.1344020520 -0.4997986427
N 1.2124180418 0.9568922790 -0.5802078025
C 1.5818516975 -0.2491205013 -0.0082029738
N 2.7387965732 -0.7256104848 0.1972657086
C 0.2825726473 -0.9451717398 0.3538925013
H -2.5886201644 -1.0263750590 -0.3419181058
H -2.4649910369 -0.3495271264 1.2752061789
H -2.8226386766 0.7074545478 -0.0953628122
H -0.6217978319 2.0481551857 -0.8693245176
H 1.8616860911 1.7035846323 -0.7431498926
H 0.2905833460 -1.2332027920 1.4078051354
H 3.4704452205 -0.0962277474 -0.1235709131
H 0.1822937757 -1.8673914780 -0.2255466574
        
