19

        C 2.2782531733 0.3819141556 0.0315351130
C 1.1556705742 -0.3861626272 0.7196059019
C -0.1252342502 0.4061353634 0.8014719687
C -1.4062641967 -0.3707014702 0.9656295210
C -1.0777152442 0.3009003316 -0.3387192502
O -2.1387038580 1.2379683601 -0.2162267530
C -2.5733236298 0.5969868573 1.0042934955
H 1.9974636743 0.6646317956 -0.9855757102
H 2.5124469299 1.3010488342 0.5731340637
H 3.1912740983 -0.2135659592 -0.0233033966
H 1.4678551608 -0.6756555653 1.7276618634
H 0.9647093228 -1.3226470843 0.1837940615
H 1.3554388685 -1.3363458258 -2.4396669506
H -0.0526437654 1.3765304032 1.2884722354
H -1.4322990208 -1.4185117060 1.2284879408
H 1.1799512321 -1.8406595425 -2.9591379156
H -0.8397659474 -0.0867081625 -1.3218102773
H -2.6241949538 1.2949542070 1.8450928917
H -3.5444351680 0.1189326350 0.8562161968
        
