14

        O 1.8405595424 -0.9388265896 -0.3907783315
C 1.7472651637 -0.2469435670 0.7228657372
C 0.5481700771 0.6330823029 0.6589799046
C -0.2953535797 0.7356228445 -0.6346132715
C -1.2475614620 -0.3460408494 -0.0870129652
C -0.6306039190 -0.1679269679 1.3147279951
H 2.5894783863 -1.5371429234 -0.3062685632
H -0.3539528112 -1.0712453800 1.8598734349
H 0.7898521214 1.5645152006 1.1709462213
H 0.2171190008 0.5166135777 -1.5702557769
H -0.7772761226 1.7104304960 -0.7141274820
H -2.3165422989 -0.1535662073 -0.1748714383
H -1.0359087384 -1.3298511817 -0.5062593576
H -1.2238613601 0.4663872447 1.9719298930
        
