19

        C -2.9946930006 0.4813747888 0.0444697428
C -1.7391743570 -0.2578603895 -0.3963088963
C -0.5867110575 0.7020752978 -0.7180896603
C 0.6038449326 -0.0204972489 -1.2358483626
C 1.7409253110 -0.2838280410 -0.5535207961
C 1.8649632614 0.0992105905 0.8175479075
C 2.9965514214 -0.5534478745 1.5019743961
H -2.7993669090 1.0876260748 0.9316111362
H -3.3564396233 1.1490007049 -0.7412231881
H -3.7981346843 -0.2164878156 0.2859648352
H -1.4083956470 -0.9376416840 0.3938177639
H -1.9625050574 -0.8807767777 -1.2689181918
H -0.3065324927 1.2534005843 0.1795977848
H -0.9206465113 1.4093005596 -1.4859346119
H 2.5276463409 -0.8421123987 -1.0740140160
H 0.5203169002 -0.4040689000 -2.2532382312
H 2.5209169797 -1.4259372020 1.9798093896
H 3.3937733694 0.0387226298 2.3277700829
H 3.8095058236 -0.9352538987 0.8659369152
        
