14

        C -1.6460859874 -1.1724007829 -0.0175372850
C -0.5918819830 -0.2114421787 0.5198968670
C 0.8509281041 -0.5282720336 0.1030357488
C 1.3810603344 0.7903603682 -0.3976515025
O 2.4690562207 1.1075500445 -0.7720185480
C -0.8840253843 1.2213661558 0.1085940502
N 0.2627088965 1.6779765630 -0.3589182040
H -2.6405621778 -0.8607645301 0.3011315005
H -1.4649959493 -2.1884933866 0.3376304376
H -1.6353028205 -1.1897354426 -1.1099449964
H -0.6752737786 -0.1930480466 1.6133510383
H 1.4923210813 -0.9010150724 0.9010241184
H 0.9045390933 -1.2476233015 -0.7173284674
H 0.3834983506 2.6250506434 -0.6912487575
        
