14

        C 1.2114839162 -0.5151887081 -0.7665852613
C 0.1224939292 -1.2554841040 -0.5949358717
C -1.0215456390 -0.4515625555 -0.0499474783
C -1.0603567492 -0.3370501703 1.4556551650
N -0.5429160917 0.8211720227 1.5975873327
C 1.0097104667 0.9343712184 -0.4063070157
C -0.4265054723 0.9784646503 0.1182310900
H 1.1554159919 1.5851271327 -1.2725709873
H 2.1619621160 -0.8990052675 -1.1184760933
H 0.0593128180 -2.3189617161 -0.7901252440
H -1.9729906979 -0.5813880195 -0.5683659260
H -1.3769500955 -1.0060965497 2.2547249499
H 1.7107349606 1.2664644966 0.3656225470
H -1.0179494530 1.8169305703 -0.2473522071
        
