8

        N -1.7579640930 0.1617752909 0.3702662048
C -0.4739537320 -0.0445442085 0.1297522020
O 0.0316218475 1.0646725082 -0.4131950305
C 2.5189524785 -0.6838309612 -0.3594384482
O 2.9904382166 -1.6664936267 -0.0929521378
H -2.2210943780 1.0373248742 0.1554670403
H -2.2979768469 -0.5750539472 0.7818702540
H 0.9650745074 0.8869810702 -0.5785520846
        
