16

        C 3.0144681345 1.6361953661 -0.2351710542
O 2.0748952029 0.5799127260 -0.2322873077
C -1.1352546234 -0.5065330444 0.0951185235
C -1.9392563474 -0.8193010388 -1.1371269088
C -1.5671401390 -1.1370416671 1.3908692426
C -0.0934451799 0.2752503960 0.0411841176
N 0.8064226248 1.1157908310 0.0167797734
H 3.0354448552 2.1462412424 0.7311867732
H 3.9792886655 1.1681976170 -0.4259630525
H 2.7913152765 2.3597834243 -1.0232728376
H -1.9410304043 -1.8960587970 -1.3263487103
H -1.5442224850 -0.3156941843 -2.0176310462
H -2.9788849840 -0.5109523309 -0.9969365769
H -2.5958099277 -0.8508289300 1.6262740032
H -0.9264202627 -0.8398407724 2.2192002220
H -1.5424174057 -2.2270168380 1.3085768388
        
