15

        C 2.0623181419 1.4489631270 0.0632010473
N 0.9486767710 0.8339055401 0.0139421728
C 0.9501305942 -0.6841046970 0.0223013730
C -0.3781352064 -0.9240216678 -0.0415213126
C -1.1792786535 0.2994948129 -0.0855081457
N -2.5233066894 0.3031028442 -0.1559869541
C -0.3366928395 1.3726416131 -0.0496621927
H 1.4523467350 -4.0420266010 0.2874030600
H 2.9557474533 0.8423555845 0.1078303660
H 2.0914303061 2.5326257546 0.0585300736
H 1.5448237346 -3.3018020148 0.2154961961
H -0.8195372695 -1.9123353835 -0.0576434362
H -3.0252303322 -0.5632057665 -0.1395079386
H -3.0509403718 1.1543477538 -0.1514734729
H -0.5205753737 2.4337601002 -0.0652888357
        
