12

        O 1.2773156297 -0.8246635679 -1.3757824984
C 0.2624491811 -0.7722972368 -0.4126410701
C 0.6526129567 -0.1704245820 0.9427367297
C -1.7491998003 0.3668493574 0.5368008862
O -0.1878803383 1.0165104273 0.7235681455
C -0.7319763835 0.3848286232 -0.5191843560
H 1.6909563398 0.0381085447 -1.4585453278
H -0.2028229832 -1.7538978072 -0.3824660340
H 0.3187801493 -0.6929043183 1.8349165314
H 1.6950927952 0.1415288005 1.0141529532
H -2.2845149758 1.3238363131 0.4515460530
H -0.7220295706 1.0195244460 -1.4066330127
        
