16

        C 1.7688565939 0.4032492020 0.4570933081
C 0.5744929600 0.4019052491 1.4071402219
C -1.0531518191 -0.3485792360 -2.1636239987
C -1.8633850914 0.4201216826 -1.4548781413
O -1.1812128504 -1.2404487505 1.4723603375
C -0.0145998416 -0.9710659413 1.5650986597
H 1.4560500864 0.1583234020 -0.5591640942
H 2.2430842625 1.3843443700 0.4347621501
H 2.5240121928 -0.3233410240 0.7659703164
H -0.2089651964 1.0853488630 1.0782313558
H -0.6930049420 -0.0522026407 -3.1425730626
H -0.7252652167 -1.3134594300 -1.7919549643
H -2.2179939768 0.1111970829 -0.4779438015
H -2.2014853001 1.3808953836 -1.8273995543
H 0.8984286145 0.7183652702 2.4060113745
H 0.7243905244 -1.7725534827 1.7879598929
        
