12

        C -1.2599917005 -0.4770295659 -0.5817871601
C -0.4475776724 -0.1600511318 0.6239493159
O -1.0500854996 -0.3125913337 1.7241030995
C 0.9306624790 0.2827062273 0.5937299779
C 1.5896531697 0.4929317588 -0.5428083166
O -0.4163969177 -0.0535449260 2.8853105868
H -0.7960054801 -1.2831351927 -1.1535178415
H -2.2590628171 -0.7833755820 -0.2800741098
H -1.3365278444 0.3959312180 -1.2329547795
H 1.3807553190 0.4299658399 1.5662379487
H 1.1346482310 0.3510496735 -1.5166270541
H 2.6206437331 0.8231680144 -0.5323936672
        
