14

        O -2.1833763337 1.7947911450 -0.6691716183
C -1.1111576886 0.9709941018 -0.6130899800
C 0.0828504628 1.2661908313 -0.1031944613
C 1.2283172660 0.3528875374 -0.0628376648
C 1.2304004043 -0.9497116976 0.2219432390
C 0.0609325714 -1.7949910226 0.6178501913
H -1.9653377646 2.6331560430 -0.2527108314
H -1.3324772060 0.0130944708 -1.0677189064
H -0.7693315798 -1.1908325368 0.9863897048
H 0.2495631401 2.2747429854 0.2722476188
H 2.1891398378 0.8136306304 -0.2766986068
H 2.1887011100 -1.4596498495 0.1802839777
H -0.3082218597 -2.3884948626 -0.2242156305
H 0.3478946401 -2.5022907763 1.3985589679
        
