7

        O -1.3209825102 -0.9519112694 1.0410685146
C -1.1318510395 -0.1166457465 0.2154031190
C 0.2780911855 0.3365132754 -0.1405001964
C 0.4380832485 1.2565460445 -1.0579105237
C 1.4108907744 -0.2297228115 0.5136504290
N 2.3256985686 -0.6817643134 1.0378495458
H -1.9393072274 0.3802778209 -0.3396588881
        
