8

        N 0.3724766601 0.9415592954 0.0476027680
C 1.1967966559 -0.0193268256 0.0511510944
N 0.5928555055 -1.3145908239 -0.1490779698
N -0.6287435168 -1.1316202865 -0.2777632859
C -0.8896263524 0.2982119629 -0.1686622738
H -1.3687985720 0.6469811861 -1.0881937269
H 2.2668585905 0.0639750635 0.1876974613
H -1.5846479708 0.4756204280 0.6571909324
        
