15

        N 2.0450239951 0.2535077252 -0.4428068286
C 0.8813460859 -0.5288051437 -0.1124624940
C -0.0689253723 -0.1908576096 1.0504068662
N 0.1701220395 -0.0733263723 2.2787683240
C -0.3283773589 -0.4592314117 -1.0428658281
C -1.0103968398 0.8553291775 -0.9257568860
C -1.2574846892 -0.1789265786 0.1448102594
H 2.7521522415 0.1482272346 0.2723944160
H 1.8194882380 1.2381983036 -0.4960774864
H 1.1872315915 -1.5709011898 0.0173552750
H -0.5115625549 -1.1253515500 -1.8737978884
H -0.4603075195 1.7590277944 -0.6876410343
H -1.8403491902 1.0140486214 -1.6026485020
H -2.2451430077 -0.5665498897 0.3526587112
H -0.6859626590 0.0807618887 2.8095440960
        
