16

        C -1.8868299451 0.1527905135 -0.0389437420
C -0.3202222303 1.4705137772 -1.4417891527
C 0.6110216173 1.8431351518 -0.5714762668
C 1.4701823819 -1.5751256872 0.6159454190
C 0.8924275199 -1.6714966999 1.8012345238
C -1.3163408527 0.4158223813 -1.2088712460
H -1.6680645420 0.7462615858 0.8420092140
H -2.6029921163 -0.6521202888 0.0708059464
H -0.3553961262 1.9536630122 -2.4147153417
H 1.3071859763 2.6399362916 -0.8016972255
H 0.7194972675 1.3516452471 0.3892471490
H 2.5330809555 -1.7445790659 0.4851928531
H 0.9001013407 -1.3179821487 -0.2696909593
H 1.4553112250 -1.9239187310 2.6928327813
H -0.1716097755 -1.5019447212 1.9254898938
H -1.6052906960 -0.1702386175 -2.0777158466
        
