14

        C 2.7334729436 -0.3839129897 0.7174390911
C 1.5109870203 -0.2133268287 0.3019716687
C 0.2916134264 -0.0456358731 -0.1021133303
C -0.5574956122 1.1754540859 -0.4176913350
C -1.8081413712 0.2633608211 -0.3391245358
C -0.8866159842 -0.9827971018 -0.3163750583
H 3.5467795037 -0.5447337810 0.0182399912
H 2.9757801979 -0.3720129084 1.7746590519
H -0.4974570968 2.0023715451 0.2894825641
H -0.3721444845 1.5592395518 -1.4230174900
H -2.3536466607 0.3890267076 0.5957603510
H -2.5121467289 0.3324967373 -1.1672168084
H -0.8380252394 -1.4958692315 -1.2789341746
H -1.0669309140 -1.7207867346 0.4649140145
        
