11

        N 2.5463679002 0.3539405189 -0.0660428374
C 1.3385364570 0.3026825500 -0.3672937246
C -0.4272463851 -2.5669105944 0.6155297647
N -0.9041113164 -1.5363563834 0.3438905127
C -1.5370353167 -0.3512719491 0.0438796122
C -0.9335239020 0.8326145146 0.0021266635
O 0.3769872240 1.0891457404 0.2258907961
H 2.7201394550 1.0050008001 0.6973149934
H 0.9586476083 -0.3404188295 -1.1585308052
H -2.5993674668 -0.4183147529 -0.1434805990
H -1.5162102574 1.7260543852 -0.1825223764
        
