18

        C -2.9533157350 0.1671361816 -0.3243137578
C -1.4454512907 -0.0221242753 -0.1996808812
C -0.7783040009 1.1445730401 0.4818742064
C 2.1201141814 -1.3127418638 0.2985299370
C 3.3813434298 -0.9972832135 0.0571185471
C 0.4767013248 1.7117482683 0.0446539450
N -0.4910980491 2.3960042365 -0.3399725375
H -3.4218881483 -0.6907609761 -0.8094560241
H -3.1825580152 1.0582316462 -0.9113053141
H -3.4155138001 0.2871630531 0.6584799656
H -1.2303694840 -0.9343671078 0.3673309410
H -1.0009166655 -0.1560763986 -1.1900843485
H -1.1143633690 1.3423137354 1.4989707865
H 1.7168133316 -1.3226034080 1.3049058147
H 1.4348677664 -1.5731214305 -0.5003106691
H 3.7833272056 -0.9892622393 -0.9497112592
H 1.5555668214 1.6964654719 -0.0314673982
H 4.0669584966 -0.7402947204 0.8566170461
        
