12

        C 1.2437700340 0.0002854786 -0.3915464943
C 0.2555193880 -0.7244713784 0.4652435130
C 0.6120348331 0.7091775709 0.7544104149
C -0.7806873981 0.3121212894 0.5440499886
O -1.5068891677 0.7602355509 -0.6367337520
C -1.7668254348 -0.0134310044 -1.6312701248
H 0.9747100150 0.2741408299 -1.4079394100
H 2.2840776159 -0.2814585462 -0.2695183645
H 0.3902470850 -1.6092932153 1.0648376652
H 1.0672713048 1.1585028181 1.6216725696
H -1.4573863231 0.3323024639 1.3895391666
H -1.3338539521 -1.0210698576 -1.3826621725
        
