19

        C -2.7567863990 0.3708961428 0.0181506825
C -1.7221917076 -0.4434243074 0.6962659141
C 0.2146182513 -0.3786080878 -1.2821746847
C 0.5338446673 -0.1378431528 -0.0134711062
C 2.9074616985 0.2151073236 -0.5650611834
C 2.0272458547 -0.0331732010 0.5241663410
C -0.4784460620 0.0800787442 1.1567612738
H -3.0284172848 -0.0296657414 -0.9664935718
H -2.4329709873 1.4046372924 -0.1134915825
H -3.6888410666 0.3830459457 0.5987185270
H -1.8916867190 -1.5111527554 0.7852510233
H -0.8098452415 -0.4635654237 -1.6147368926
H 0.9983897387 -0.4902466084 -2.0202813920
H 3.0585224600 1.2207050490 -0.9344099822
H 3.3480983716 -0.5959602881 -1.1293360442
H 1.9838867336 0.7746744842 1.2649482053
H 2.2023469659 -0.9764844932 1.0516481831
H -0.4882104663 1.1538438755 1.3700070027
H -0.0457208077 -0.4459937984 2.0160342866
        
