17

        O 2.4323643345 -0.2422893242 1.2411197212
C 1.6713747551 -1.1591441408 1.3702399953
C -0.1341799079 -0.5911950567 -1.2574364490
C 0.0320675370 -1.9018922384 -1.3734750076
C -0.4729299210 1.7856731240 0.7378407158
C -1.2042145202 1.3726389959 -0.5224117086
O -1.2264310531 -0.0409834604 -0.6922472807
H 0.5771270939 1.4866598329 0.7115582694
H 0.6008569419 -1.0061321401 1.5981268982
H 2.0010659121 -2.2099465627 1.2715442302
H 0.6102105665 0.1147875320 -1.6221763072
H 0.9156599738 -2.2855000797 -1.8619925021
H -0.7116287295 -2.5997431056 -1.0109106482
H -0.5138167081 2.8705623769 0.8544548902
H -0.9391747898 1.3316524373 1.6139664252
H -0.7568946260 1.8371007726 -1.4083667473
H -2.2516668593 1.6734770368 -0.4830324946
        
