15

        C -1.0641622891 1.6712210138 -1.5339773816
C -0.4029092581 -0.6307076755 -0.0847806596
C -0.0875113993 -1.8862734866 0.6619491772
C 0.2469155570 0.5274794991 0.0637089210
O -0.0121594473 1.6856297680 -0.5993476117
C 1.3405004552 0.6941598155 0.9800781260
C 2.2534263680 0.8340350031 1.7426170588
H -1.1081749449 2.6723062941 -1.9568944185
H -2.0201591738 1.4360549146 -1.0541963527
H -0.8759979825 0.9468483570 -2.3334652878
H -1.2196542811 -0.6816932884 -0.7943226270
H 0.7362595834 -1.7446781558 1.3602077187
H -0.9578939381 -2.2304318049 1.2266832304
H 0.1838331414 -2.6893087400 -0.0283734639
H 3.0637596092 0.9627654861 2.4204695707
        
