8

        N -1.6332335103 -0.4864849411 0.0892006560
C 1.4421748630 0.9858352117 -0.0532274700
C 2.5119652064 1.5177346423 -0.1014886197
N -1.8969548874 -2.8169474865 0.0494075919
N -1.8438544855 -1.7015083992 0.0684292915
H -2.5141814019 0.0188778554 0.1005042304
H 0.4850113600 0.5097940260 -0.0102860091
H 3.4643528556 1.9919730914 -0.1420916712
        
