12

        O -1.7858107389 -0.6753643240 -1.7052747282
C -0.9752556247 -0.5553552245 -0.8390605326
C -0.9131248592 -1.4289980112 0.3859226720
C 1.4829333107 1.7853351092 0.1889876773
C 0.9707916014 0.5949513819 -0.0562732296
O -0.0582344055 0.4452623866 -0.9504999539
H -1.7976632393 -2.0587989320 0.3913013974
H -0.0264827991 -2.0652892198 0.3604075691
H -0.8739434153 -0.8322515850 1.2979230640
H 1.0772478770 2.6770116577 -0.2702391999
H 2.3320693070 1.8769837724 0.8506072529
H 1.3657789860 -0.3173510114 0.3751760116
        
