17

        O 1.6796482983 0.2447996139 -0.8242380545
C 1.5962251708 -1.0380317880 -0.2491099533
C 0.1789686616 -1.6081096862 -0.2543955367
C -0.7737380872 -0.8464258084 0.6126466039
C -1.9324636730 -0.3422113266 0.2152610678
C -0.2801310567 2.6577624748 -0.0011010336
O 0.6354217648 2.4165015008 0.7381058272
H 1.4742484792 0.9116152925 -0.1553465678
H 1.9916586386 -1.0339580680 0.7751854910
H 2.2420690883 -1.6909513862 -0.8409464342
H -0.1919427674 -1.6368235617 -1.2822791374
H -0.4702520525 -0.7084169648 1.6495645033
H 0.2351520982 -2.6441008881 0.1012057681
H -2.5848410055 0.1888016145 0.8987978475
H -2.2757903102 -0.4544727500 -0.8083712950
H -0.4345373103 2.0905269495 -0.9339610618
H -1.0040369370 3.4592737820 0.2278499655
        
