14

        C 3.2740361079 -0.8313484998 -0.1621435982
C 2.4123889103 -0.5813516133 0.6698375655
C 1.4484075922 -0.4535192732 1.6109443634
C -0.7035452048 -0.0392819848 -0.7855197770
C -1.3316297040 0.6476697918 0.3947420466
C -2.1719643004 0.2550613602 -0.7816117331
H 4.0247070982 -1.0449138004 -0.8867811489
H -0.3913301604 -1.0680746335 -0.6634441015
H 1.2354883507 0.5962724392 1.8453521642
H -0.0679211323 0.5486881893 -1.4348166139
H -1.1258426109 1.7007414899 0.5390806112
H -1.4391180842 0.0805117096 1.3099698091
H -2.8556373815 -0.5746550301 -0.6610451595
H -2.5322334810 1.0418648550 -1.4311214279
        
