8

        N -1.4681317629 0.6603783189 -0.2822599456
C -0.5736334712 -0.2011364270 -0.0559420550
O -0.8762878259 -1.5012113027 0.0668053545
C 0.8379997780 0.0602598460 0.0988156881
C 1.9974522364 0.3273968414 0.2204218269
H -1.0780759927 1.5930468610 -0.3473104056
H -1.8326144754 -1.5693132107 -0.0498765630
H 3.0313085137 0.5582040732 0.3311840999
        
