17

        C 1.8263179184 0.2318845775 -0.0562012423
C 0.3163525862 0.1142276823 -0.0556222737
C -0.2277891425 -1.2641304090 0.3625648593
C -0.6014054538 -1.4153787013 -1.1127934633
C -1.7730443336 1.5596588180 0.5726859521
C -0.3365195815 1.3436705022 0.5828107659
O -0.1862494580 -0.0733975112 -1.4019807540
H 2.1342055604 1.1200692864 -0.6112009220
H 2.2813546594 -0.6400851851 -0.5280644412
H 2.2068955241 0.3126404998 0.9653101119
H -1.0808565361 -1.2304931496 1.0396467798
H 0.5152769453 -1.9586658263 0.7503223218
H -0.0127299315 -2.1488340539 -1.6713528064
H -2.2594344303 0.5758808062 0.4115249456
H -1.6616707864 -1.5674251793 -1.3295190472
H 0.2282699307 2.2593334809 0.3791396740
H -0.2971264710 1.2613103624 1.6981645397
        
