14

        O 1.0750480448 -2.3095931077 -0.7399777985
C 0.2863375119 1.3387079126 -0.4125179130
C -1.0299138750 0.6061663714 -0.4963582177
C -0.9784563786 -0.2349716694 0.7865738745
O 0.4000939631 -0.2227287667 1.2271147196
C 1.0091699809 0.7986351372 0.5556904460
H 1.0446796070 -1.8313507600 0.0967342437
H 0.6030695569 2.1396693412 -1.0614193360
H -1.0823459698 -0.0171510046 -1.3937645702
H -1.8945958180 1.2711138206 -0.5053922311
H -1.2729478550 -1.2730291416 0.6446891245
H -1.5773893580 0.2088152851 1.5855325543
H 2.0123854966 1.0265313199 0.8865706697
H 1.3907640931 -1.6616967380 -1.3719465658
        
