12

        O 2.6453777282 1.6063866030 0.2269501032
C 2.3569963634 1.3184060261 1.2741248107
C 1.8436167860 -1.3556314096 -1.4881625218
O 1.0705304607 -1.0091723823 -2.2283448150
N -0.1895938588 -0.4100041800 0.7313576484
C -1.4979095343 -0.7122050240 0.1622618503
C -0.9958583694 0.6748765880 0.1806108854
H -0.2248050204 -0.4089729981 1.7425986301
H -2.3074421985 -0.9698477213 0.8356572733
H -1.4742072077 -1.2773240361 -0.7618591150
H -0.6040268473 1.1137710064 -0.7296033508
H -1.4585083016 1.3768755282 0.8650636013
        
