13

        C 1.9260322391 0.5217186704 0.5289285091
C 1.0058713860 0.6093664412 -0.6096648718
C -1.2824677805 -1.3119449579 -0.4011344658
N -1.3949998951 0.1182095646 -0.2311510826
C -0.3442443265 0.9483291216 -0.2921385862
O -0.3784668466 2.1786263580 -0.1967754344
H 2.9549270460 0.7761761636 0.2760153746
H 1.6035002830 1.0247193168 1.4459803232
H 1.9246079769 -0.5661269513 0.7266466657
H -0.3543877448 -1.5341786088 -0.9317786692
H -1.2788913871 -1.8451071371 0.5528562194
H -2.1067282458 -1.6849641051 -1.0088437237
H -2.2960977047 0.5477781239 -0.1045262581
        
