11

        O -0.0777070827 -0.7814300634 1.8819363541
C -0.0261346103 -0.2200597560 0.6524330068
C 0.8584429033 -0.4675510932 -0.5661247736
C -0.1435124370 0.5769482871 -1.0496197396
N -1.2482758621 0.0783897933 -0.1698085794
C -0.3897135040 1.1585997366 0.2878081501
H 1.9041915486 -0.1669579699 -0.4853040410
H 0.7538937593 -1.4519556080 -1.0300393890
H -0.3574041044 1.0008267144 -2.0184939458
H -0.4069782807 -1.6803901245 1.8009779502
H -0.6883793301 2.0844960837 0.7465770072
        
