15

        C -1.7429557120 0.3762797385 0.5268812684
C -1.5732246290 -0.2849593818 -0.8294125544
N -0.3463880503 0.0653981313 -1.5255832472
C 2.0564283265 -1.3662588359 0.5190070260
C 2.4818156714 -0.9019175302 1.5350441899
N 1.3163725429 1.7596736399 -1.0188365938
C 0.4804417125 0.8865375866 -1.2029832938
H -2.6800715498 0.0564552244 0.9854987753
H -0.9247936320 0.1044818683 1.1971497625
H -1.7624804448 1.4639435408 0.4344708894
H -2.4038590671 -0.0280123168 -1.4910895614
H -1.5863185065 -1.3725922500 -0.7277874318
H 1.6688088348 -1.7679768729 -0.3892979523
H 2.8654119525 -0.4992427634 2.4434413562
H 2.1131495510 1.5012022213 -0.4509136329
        
