16

        C -1.5263004783 1.0798488440 0.4466020740
C -1.5543213829 -0.4413083097 0.3996059520
C -0.1659325703 -1.0723608811 0.5919120045
C 0.8086070776 -0.7375037958 -0.4783625425
C 2.6480472608 0.6409543354 -0.9862262776
O 1.7230002282 0.1319055289 -0.2243976318
H -0.8879727353 1.4879331694 -0.3401404643
H -1.1349442768 1.4355559431 1.4031728816
H -2.5252295956 1.5003203359 0.3183138820
H -1.9680237092 -0.7757156846 -0.5571796573
H -2.2245816182 -0.8259180805 1.1744295284
H -0.2784832590 -2.1603646961 0.6528525595
H 0.2526022043 -0.7453885171 1.5484237090
H 0.7536044235 -1.1294724741 -1.4900023863
H 3.3108657813 1.3310097948 -0.4966345842
H 2.7229526499 0.3222194875 -2.0166020470
        
