15

        C -2.3761567367 -0.1493813384 -0.5040419777
C -0.9416576084 -0.2970432716 -0.0134972594
C 0.0321610574 0.5531200085 -0.8212226736
C 1.4859735868 0.5773423220 -0.5052446497
O 1.7014242310 -0.2118666229 0.5386379706
C 2.9886475681 -0.2440078432 1.0748215178
O 3.6663552205 0.7043674368 1.2371946832
H -2.7149235111 0.8869622053 -0.4299043290
H -3.0603652204 -0.7644415057 0.0825635486
H -2.4706065811 -0.4521542814 -1.5498684059
H -0.6379329311 -1.3459410155 -0.0665229910
H -0.8800727109 -0.0185433345 1.0417291917
H -0.0164519430 0.3227431549 -1.8941661281
H -0.2433136947 1.6184653894 -0.7956212000
H 3.2222452737 -1.2758093037 1.3653737026
        
