10

        O 1.5798897350 -0.5347914686 0.2230796717
C 0.3358670243 -0.0401572092 0.0142583663
C 1.4448310325 0.8729793802 -0.1443682620
O -0.6365207056 -0.0579446464 1.0121998245
C -1.5225105040 -0.5741638436 0.0267941230
O -0.5054871568 -0.5614969098 -0.9668932072
H 1.8044765422 1.1151926971 -1.1388264971
H 1.6854002171 1.5717007788 0.6498298731
H -2.3423707150 0.1114806199 -0.2020178008
H -1.8800634696 -1.5807853983 0.2595329086
        
