11

        O 2.0674429729 -0.1595459164 1.0500782624
C 0.9006181492 -0.0800357779 0.4318111324
N 0.1732112321 -1.0764285300 0.0763252700
C -1.2025286031 -0.6473202269 -0.2005460931
C -0.9019413574 0.8101158295 -0.5148891540
O 0.3128837784 1.0853711220 0.2991593031
H 0.4441284020 -2.0256947260 0.2664532558
H -1.5728440814 -1.1741243953 -1.0818262794
H 2.3921032440 0.7326365937 1.2091660544
H -1.6600369001 1.5229829227 -0.1959867956
H -0.5959988366 1.0483991045 -1.5513999560
        
