11

        N -1.4165526719 0.4378747730 0.2411123064
C -0.8937390686 -0.8192735193 0.4965673909
O -1.6075579782 -1.7499863871 0.8228329036
C 0.5381110985 -1.0049292525 0.3615588899
C 1.2998601658 0.8903810160 -0.8894921700
O 1.3884488019 -0.2018691049 -0.2238459318
H -0.8479064595 1.2387312925 0.4689734820
H -2.3784302061 0.5171298774 0.5336540275
H 0.9964542050 -1.8961239625 0.7561537791
H 0.3405407045 1.3152176915 -1.1437248216
H 2.2396734087 1.2537205758 -1.2727668558
        
