13

        C 1.8920861332 -0.0013973600 -0.3438660197
C 0.6339184778 0.6289261943 0.1247581775
O 0.7474463105 1.8830773362 0.5913293148
N -0.5084359586 0.0834372595 0.1011377020
C -1.2733995008 -1.0859300200 -0.1991624247
C -1.9101984998 0.2150736035 0.2550681316
H 2.3458757434 0.6116555002 -1.1246488305
H 2.6059354493 -0.0759877977 0.4782193110
H 1.6909854549 -0.9970852494 -0.7333556129
H -1.0807326495 -1.9171473667 0.4783873921
H -1.3453697679 -1.3608022850 -1.2481993381
H -2.1834013264 0.2202664100 1.3133271674
H -0.1410778661 2.2376457750 0.7284850295
        
