15

        C -1.2016225760 -1.6245935586 0.6040748040
N -0.5879770189 -0.4783471337 -0.0306909444
C 0.4794853315 2.1968787223 -0.3100308965
C 0.5958667125 -0.7080409146 -0.8533232847
C 0.6752515929 -0.0360536596 0.4658931679
O 0.9125697536 1.3038678205 0.6911894976
H -1.8835454760 -2.1078363033 -0.0976713771
H -1.7778797562 -1.2927165710 1.4689308072
H -0.4673583839 -2.3721537516 0.9391319240
H -0.5644385852 2.0173499691 -0.5794149218
H 0.5788866786 3.1976545509 0.1065213151
H 1.1043687212 2.1255370156 -1.2073719270
H 0.6317950238 -0.1477154831 -1.7797941716
H 0.9891270075 -1.7200993742 -0.9161627374
H 1.1165319746 -0.6025073287 1.2818527450
        
