8

        O -0.5175705206 -1.1342446717 0.1692176713
C -1.3215163495 0.0039719260 0.2691200244
C -0.8765528649 1.2330304230 0.1176974209
O -0.5359796734 2.3315041653 -0.0067211949
C 0.7360465334 -0.9304281223 -0.1028246107
C 1.8910014092 -0.7524524305 -0.3534437849
H -2.3574615181 -0.1910002260 0.4845948492
H 2.9202759840 -0.6067850638 -0.5751433753
        
