14

        N 1.6537132360 -0.8130805450 0.6092535728
C 0.8047489167 -0.2368263830 -0.0936860343
O 1.0960331597 0.8468258087 -1.0211714253
C 2.2487116216 1.0643462811 -1.5590494934
C -1.6401837758 0.5963565500 -0.2483160721
C -1.4607066674 -0.4011049473 -1.3363562573
C -0.6348301069 -0.5162672386 -0.0787080320
H 2.6038916724 -0.4745543403 0.4656547577
H -1.2562485117 1.5929889853 -0.4141694883
H 2.9549188160 0.2716807305 -1.1871170356
H -2.5251164514 0.5402836415 0.3704235470
H -0.9609548284 -0.0746060543 -2.2377863209
H -2.2186574051 -1.1583361968 -1.4822672607
H -0.8833526759 -1.3099232920 0.6110835424
        
