17

        C 1.9557100096 0.6271580553 -0.1096267412
C 0.9333025128 -0.4763665106 -0.2918744951
C 0.1200726292 -0.8317399751 0.9706207216
C -1.1243657239 -0.0633258350 0.5070169399
O -2.3173061200 -0.7622413055 0.5600034400
C -0.8030303240 1.2722293429 -1.0917292406
C -0.3760207931 -0.0684895940 -0.9926326010
H 2.7695493713 0.2905433730 0.5365704765
H 1.5034369870 1.5173699638 0.3290006232
H 2.3795436662 0.9261885456 -1.0701671442
H 1.3954216105 -1.3479524981 -0.7564602799
H 0.5254221968 -0.5092055726 1.9304609180
H -0.1261358099 -1.8923250851 1.0200252626
H -3.0506430503 -0.1478180661 0.6139496292
H -1.8361428030 1.2320780683 -1.4863967745
H -1.1945970895 0.9246759853 0.9630271411
H -0.8507762697 -0.8834108922 -1.5434968754
        
