11

        C -1.3599890599 0.0146552698 -1.0962229866
N -0.3491022742 -0.3735791990 1.3126343331
C 0.4543849359 -0.0513622600 0.3864876651
O 0.0307590135 0.1898667421 -0.8638515620
N 1.8250378778 0.0673056970 0.4366156858
H -1.5109539645 0.2351702339 -2.1506813335
H -1.6600398369 -1.0092134854 -0.8715325380
H -1.9445119223 0.6932440421 -0.4745500313
H 0.1327766606 -0.5354556562 2.1881483795
H 2.2285494205 0.2372784889 1.3394349565
H 2.2471701497 0.5694591268 -0.3248805686
        
