12

        C 1.1974619546 -0.7535444341 0.2451265328
C 0.4489728474 0.3772395900 0.9323372441
C -1.4849445587 0.1159412770 -0.6696281919
C -0.8967403722 0.7097375840 0.3578053502
H 2.1608792220 -0.9251646148 0.7274491040
H 1.3881960080 -0.5239059059 -0.8054581295
H 0.6335321400 -1.6878489712 0.2857525450
H 1.0585917479 1.2877935119 0.9172573644
H -1.0206054900 -0.7029967690 -1.2073391516
H -2.4628935023 0.4310393403 -1.0122843807
H 0.3162662031 0.1424651276 1.9946008883
H -1.4191271998 1.5253092641 0.8533058248
        
