12

        N -1.6876650482 -0.6938746050 0.6985684234
C -0.5202652226 -0.1415002771 0.2807986543
N 0.5628783257 -0.8079968344 0.2075876100
C 1.8003938281 -0.2684952830 0.2929533375
O 2.6504279470 -0.9062421490 -0.4857921618
C 0.2361307168 2.0304934494 -0.6433516315
N -0.6097253732 1.2435327459 -0.0091379795
H -2.5571897229 -0.3342747942 0.3457022077
H -1.6600496460 -1.6785103506 0.8973293616
H 2.2035566350 -1.6062197490 -0.9950306270
H 1.0234779563 1.3917790232 -1.0718188802
H -1.4150743959 1.6878518238 0.4148676856
        
