17

        O 0.4410224288 -1.5603100516 1.1513027302
C 0.6763156018 -1.0333381935 -0.1483782986
C 1.5314201392 0.2269979278 -0.0022572205
C 0.5469302315 1.4065716398 0.0571421343
C -0.6643411283 0.9398772193 -0.7426190260
C -0.5859106296 -0.5603367265 -0.8672580343
C -1.6585050609 0.0793703260 -0.0315177561
H 1.1904827674 -1.7888737204 -0.7533653070
H 2.1937740896 0.1567146538 0.8615083479
H 2.1535020053 0.3235932229 -0.8954711074
H 0.9793393960 2.3133610049 -0.3674749860
H 0.2708685776 1.6363328698 1.0888465186
H -1.0070811741 1.5402972646 -1.5755664117
H -0.8773678361 -1.0604401007 -1.7822121687
H -0.2394117299 -2.2329926800 1.0847064939
H -2.6695500510 0.0449524779 -0.4169982475
H -1.5779836271 -0.0017091340 1.0456993391
        
