17

        C -1.8023055829 -0.6182536768 0.4101058426
C -0.7641851751 0.0297669526 -0.4753446976
O -0.6000908795 1.3912800116 -0.0998898913
C 0.6718157850 1.7646574499 -0.5950036528
C 1.5703167289 0.6230762949 -0.7534309300
C 1.1539414024 -0.8964201008 0.9894605832
C 0.6758261147 -0.5224245913 -0.4352196447
H -2.7689652477 -0.1323367647 0.2751240837
H -1.5273924032 -0.5349445854 1.4618927301
H -1.9147340208 -1.6747403962 0.1577258434
H -1.1093050780 -0.0089690384 -1.5215615815
H 0.6166190179 2.0732089197 -1.6669806035
H 1.0632489551 2.6254166499 -0.0520902274
H 2.2050418940 -1.1788820498 0.9797619361
H 1.0208185271 -0.0696104790 1.6892144042
H 0.5669383042 -1.7409628181 1.3501879415
H 0.8351786579 -1.3832157781 -1.0863651363
        
