13

        C -1.0525884785 -0.1005309258 0.6527642239
C -0.0998440263 0.7682111480 -0.0946120266
O 0.6558244337 0.0294038629 -0.9671197446
C 0.0291753058 2.0820082319 0.0387937641
O 1.2515234010 -2.6874952478 -0.0255206166
H -1.7113430179 -0.6207960679 -0.0460401654
H -1.6579672865 0.4903072392 1.3363761470
H -0.5072476810 -0.8608180330 1.2159101694
H 1.1409624497 -1.8037192270 -0.3964869350
H 1.2774042631 0.6032241434 -1.4220580761
H 0.7498453138 2.6490656084 -0.5391822861
H -0.5906462290 2.6235743270 0.7373963890
H 0.6671485519 -3.2477960595 -0.5368658431
        
