14

        C 1.3901362775 -1.2624173215 -0.8753760437
C 0.0821193747 0.1758051375 0.9730302174
C 0.9422545945 0.9312810712 0.0569065495
O 0.4584282458 -0.1883427171 -0.7348752780
C -1.2892254560 0.6923355507 1.0260890064
O -1.4885224158 1.5902332070 1.8297556228
N -2.2662518053 0.1347830420 0.2669680505
H 2.1497277337 -0.9780795468 -1.6062629564
H 1.8402748729 -1.4962016561 0.0894483383
H 0.8280062290 -2.1207611852 -1.2375162557
H 0.6131789704 1.8689263023 -0.3919956648
H 2.0208188828 0.8945527160 0.2070023010
H -3.2169402550 0.3848601062 0.4742766611
H -2.0835242492 -0.6886327064 -0.2740385484
        
