11

        C -1.4438539292 -0.1770090771 0.0587683640
C 0.0619006178 -0.0841726719 0.0623701746
C 0.8959803077 -1.2892438598 0.1525177741
O 2.1010925981 -1.3223617856 0.1347557828
N 1.2941457250 2.1174348265 0.0283920924
C 0.7028948919 1.0693153043 -0.0175431550
H -1.7348535287 -1.2290356193 0.0527492940
H -1.8848332112 0.2818885966 0.9448662334
H -1.8845587419 0.2889849150 -0.8230489835
H 0.3045230305 -2.2250836291 0.2391086560
H 1.6140872402 2.5513460001 -0.8305052329
        
