16

        C 2.0903663180 0.4742615374 -0.0114781701
C 0.8486538557 0.1165003814 -0.7691936887
C -0.3727704827 0.4227344683 -0.3813657426
O -0.3213964095 -2.2889343594 1.3394745740
C -1.2329836551 1.0483320574 0.6220889307
C -1.8126213436 0.3721018903 -0.6217698646
H 2.6583602957 -0.4196931008 0.2591333094
H 1.8480475104 1.0156574570 0.9031022332
H 2.7491050454 1.0997211915 -0.6192462350
H -0.0045937233 -1.5980696889 0.7460765260
H 0.9734453188 -0.4247378210 -1.7044187591
H -0.5415875425 -3.0256137775 0.7681773050
H -1.3684549736 0.5423056109 1.5713016286
H -1.2707661705 2.1305812067 0.6716570507
H -2.3302434147 -0.5695556123 -0.4785078186
H -2.2316736284 1.0074765590 -1.3934482787
        
