14

        C -0.6651389869 -1.1822398223 0.3305530028
C -1.0500780359 0.0328696128 -0.4823728710
C -0.1968053258 1.1988828581 -0.0228835501
N 1.1778331134 0.7557459727 0.0982528938
C 1.6359653630 -0.5285980993 0.1360555920
O 0.7083765612 -1.5098942638 0.1412245211
O 2.8060056471 -0.8067926479 0.1521036355
H -0.8482840848 -1.0104989045 1.3973864054
H -1.2176174121 -2.0705226319 0.0278597273
H -2.1089475502 0.2585615211 -0.3480633897
H -0.8775735009 -0.1725268473 -1.5415488472
H -0.5652567897 1.5741063770 0.9390769164
H -0.2472111615 2.0237038690 -0.7368042733
H 1.9157501628 1.4363050060 0.1159992372
        
