14

        N 1.8391665538 -1.7059084429 -0.2870633842
C 0.9330194270 -0.8310841379 -0.2145971793
O 1.2560152664 0.5171075769 -0.2304724330
C 0.3071059962 1.4708240954 -0.1556473184
C -0.9966668365 1.2044840821 -0.0553768525
C -1.4039262921 -0.1771647947 -0.0300966064
C -0.4823992809 -1.1464183424 -0.1097796268
H 2.7590356437 -1.2791445648 -0.3537529700
H 0.2211601279 0.1229763745 -3.4009277865
H 0.7390280840 2.4617542518 -0.1869175181
H -1.7095696837 2.0130267206 0.0046739421
H -0.3070486843 -0.0315973889 -2.8982812657
H -2.4553717080 -0.4246754828 0.0512849242
H -0.7302426136 -2.1982499467 -0.0982699254
        
