16

        C 1.3611895608 -0.8691809848 -0.3704209073
C 0.3665363561 -0.3526674218 0.6568932658
C -0.1410767820 1.0745859156 0.3917816350
C -0.8240672210 1.2555467288 -0.9589441119
C -0.8120417559 -1.2804913661 0.8253304405
O -0.9757584157 -2.3130186356 0.2362689195
H 1.7593162414 -1.8384170400 -0.0704751444
H 0.8899714635 -1.0047613963 -1.3442130813
H 2.1939993755 -0.1723867560 -0.4832772985
H 0.8444589913 -0.3345271807 1.6467231621
H -0.8349387228 1.3533172430 1.1917498571
H 0.7051739717 1.7616999705 0.4734855551
H -1.2262215016 2.2650567940 -1.0551518300
H -0.1294205422 1.0974914822 -1.7850999109
H -1.5654939160 -0.9363769081 1.5687592490
H -1.6532581033 0.5551535552 -1.0882647998
        
