11

        O -0.1931814085 2.1543318643 -1.2097177899
C -0.4592875260 1.1773079493 -0.6046054122
O -1.6681171362 0.7762997730 -0.1127577285
C -1.1204855902 -0.4419867875 0.4631200242
C 0.2448979292 -0.0883394077 -0.1046097985
C 1.2779449294 -0.9428576540 -0.6868953890
O 1.3880598562 0.1506319957 0.7440156898
H -1.5791769340 -1.3293554965 0.0302914719
H -1.2099711711 -0.4354878060 1.5499788231
H 1.8302603504 -0.3161637691 -1.4013882887
H 1.4323457007 -0.5504506613 1.4041983978
        
