13

        C 1.4156854022 -0.5793049070 0.0673229064
C 0.0341313488 0.0111613776 0.1507868781
C -0.1549737286 1.4281326580 0.6405748990
N -0.3570270706 1.0203302597 -0.8330604784
C -1.0917778133 -0.9310283117 0.3770974858
O -2.1612277896 -0.8560039170 -0.1794641693
H 1.5198470301 -1.2979411654 -0.7502613597
H 2.1463840172 0.2214521487 -0.0469392132
H 1.6422338691 -1.0918690170 1.0042466031
H -1.1759153631 1.5337232028 1.0263489089
H 0.3431011902 1.3340738630 -1.4870695438
H -1.2815615369 0.8554833311 -1.2219382853
H -0.9054155555 -1.7045305229 1.1462573682
        
