12

        N 1.0859050505 1.3480673342 0.8263356456
C 2.1674309350 1.0691233595 0.1619896601
C -1.6120201917 -0.3589674491 -0.6308598097
C -1.2656800926 -1.1494249577 0.3745517790
C 1.9905017438 0.0102338358 -0.7867580020
N 1.9857595038 -0.8248216709 -1.5831508282
H 0.1895656369 0.8768115852 0.7077449659
H 1.1212044560 2.0825207656 1.5166795842
H -1.0223432419 -0.3157299261 -1.5399235110
H -2.5056538806 0.2543059472 -0.5908991598
H -1.8595559493 -1.2139963383 1.2798033005
H -0.3818119698 -1.7756164854 0.3174223753
        
