15

        C -1.0565925481 -0.0101324780 1.0350312599
C -0.1496056714 -0.2744097591 -0.1610200451
C -0.9137619092 -0.2641263626 -1.4759524977
N 0.9302174319 0.7179895299 -0.2293180911
C 2.0864019703 0.7320559628 0.4119938937
O 2.1602807045 -0.3616431154 1.1969418836
H -1.8329667525 -0.7748763962 1.1056634743
H -1.5445274526 0.9633313345 0.9419277050
H -0.4815512499 -0.0184255787 1.9605292113
H 0.3283309049 -1.2468387644 -0.0326529560
H -0.2529422937 -0.4805523797 -2.3168264920
H -1.3827734366 0.7097325316 -1.6467086880
H -1.7066865359 -1.0128577979 -1.4623921308
H 0.7765209501 1.5094749691 -0.8310392401
H 3.0122178881 -0.3234086960 1.6321087132
        
