11

        N -1.8233095073 -0.4841827688 0.1585194410
C -0.4384785610 -0.3220896675 0.0556618934
N 0.2203757973 -1.5941798805 0.0141162808
N 1.4060962550 -1.5940086669 0.3432818595
C 0.8846677136 1.9189267573 -0.0988151333
C 0.2135515332 0.8122008158 -0.0060391365
H -2.3545489535 0.3182976428 -0.1369853340
H -2.1327100841 -1.3321474164 -0.2924042143
H 1.7372876995 -2.5592327452 0.2307423820
H 1.1562423826 2.3409358106 -1.0621928921
H 1.2077687244 2.4586111187 0.7865888535
        
