13

        C 1.2644807210 -0.2983700474 0.3596805264
C 0.8742286511 0.9679918866 0.3227183348
C -0.5900781787 1.0987152960 -0.0041760643
C -0.9647337464 -0.3161320703 -0.4876870850
C 0.1328880876 -1.2473713613 0.0646659050
H 0.4085705457 -2.0313513808 -0.6442620407
H 2.2638457231 -0.6317871578 0.6123686418
H 1.5088431819 1.8185040385 0.5410354225
H -0.7908660561 1.8635640807 -0.7578063945
H -1.1533978447 1.3879599756 0.8903421675
H -1.9668969003 -0.6161241380 -0.1802153171
H -0.9410043242 -0.3408874967 -1.5792574187
H -0.1857268600 -1.7542936250 0.9825393222
        
