14

        C 1.8155135778 0.3306738693 -1.4143063391
O 1.5829792410 0.1195062407 -0.0330677279
C -1.1071030997 -0.3554300197 2.3239326532
C -1.5180129202 -0.5693002395 1.0810574069
C -1.3319733626 0.4558181657 0.0345779108
O -1.6279600025 0.2890797135 -1.1211668575
H 0.9323887331 0.0975836300 -2.0173139474
H 2.6677592092 -0.2535115853 -1.7769701458
H 2.0463457018 1.3878389752 -1.5392815206
H -0.6202311447 0.5761680195 2.5944822471
H -1.2320621830 -1.0929272020 3.1070615302
H -1.9984466355 -1.4926058481 0.7744234862
H 1.3712197657 -0.8049842903 0.1047015717
H -0.8979798803 1.4108115712 0.3866877323
        
