17

        C 0.4525412377 1.4186524567 -1.4702934226
C -1.1432779602 0.0602722745 1.2283686281
C 1.3711316320 0.2050635120 -1.4340764463
C 0.0793275052 -0.2339203468 1.9877790446
C -1.6462134579 -1.0978169744 0.4751839991
H -0.2109040742 1.4557523565 -0.6006064511
H -0.1785156232 1.4107058790 -2.3612061859
H 1.0251940316 2.3479926485 -1.4799588960
H 2.0041383661 0.2104505152 -0.5440320880
H 2.0292352689 0.1773454468 -2.3046583751
H 0.8019129776 -0.7274750277 -1.4273046339
H 0.6787918765 0.6539102900 2.1936149566
H -0.3457986712 -0.5163125896 2.9673281873
H 0.7040983309 -1.0698338390 1.6421521936
H -0.9359515755 -1.9049984390 0.2450669095
H -2.4043149921 -1.4977569808 1.1702149832
H -2.2173528723 -0.8063651821 -0.4078264032
        
