12

        C -1.7419849885 -0.3787099238 -0.2102705749
C -0.4974425871 -0.8808935749 0.4439785411
O -0.1999558688 -2.0612643235 0.5909275206
C 0.4842714277 -0.0808581271 1.1006452700
C 1.6360492294 0.3455937943 0.2681128211
O 0.9716287991 1.5737036838 -0.0674186243
H -1.4853349608 0.3141420567 -1.0141135030
H -2.3121308109 -1.2204098478 -0.5999634515
H -2.3403688127 0.1721558580 0.5170807280
H 1.0047017127 2.1503061707 0.7020118861
H 1.8188855700 -0.1991363418 -0.6599201570
H 2.5721092900 0.5107785751 0.8020475437
        
