16

        C 2.2702109560 0.0786956840 0.4223969775
C 1.5709631938 1.1774274546 -0.2506518212
C 0.1028092153 1.1522256283 -0.1241786433
C -0.6638274593 -0.0471398603 0.3898285348
C -2.0844711524 -0.2526726220 -0.0385977971
C -1.0083291065 -1.1617415589 -0.5540570492
H 1.7783167704 -0.4304709909 1.2598878167
H 3.3156688802 0.2930327124 0.6422689180
H 2.2801060880 -0.6457450478 -0.4157282060
H -0.0013833874 2.0091906961 0.5728773058
H -0.3509472090 1.5461248244 -1.0409451540
H -0.4391688591 -0.3461800544 1.4072908231
H -2.7887458301 -0.6477614332 0.6814679216
H -2.5084651765 0.4672893361 -0.7283129402
H -0.7127699554 -1.0511293029 -1.5905639870
H -0.9751639680 -2.1788834655 -0.1865056996
        
