9

        N 2.0780935904 -0.2027405240 -0.4575039084
C 0.8715511773 -0.0829098895 -0.1458660308
N -0.0996669944 0.8599746380 -0.5179214767
C -1.1668997284 0.4943792535 0.0811434723
N -1.0542709673 -0.6807261326 0.7652731508
O 0.2949260396 -1.0089169664 0.7140268590
H 2.3368028755 0.5390381671 -1.0972882878
H -1.4074767360 -0.7636728294 1.7090263997
H -2.1198292567 1.0074152833 0.0423948220
        
