8

        O 0.1843949319 1.7582454182 0.2209686455
C -0.6937345489 1.0168696462 0.0765380425
C -1.6777456584 0.1751080143 -0.0855970277
N 1.3116118259 -1.6832864113 -0.1613920798
C 2.1080057582 -0.8843850312 0.0271223912
H -2.6947552270 0.5339312996 -0.0664257580
H -1.4417155236 -0.8679916975 -0.2368155893
H 2.8439574420 -0.1300472383 0.2045843757
        
