10

        C -1.0005732793 0.9309722210 0.2977650989
C 0.8968224184 -1.1354145100 0.1552546401
C 0.7658382049 -0.1882268927 -0.7670208105
O -0.1027274524 0.8400727209 -0.7854568969
H -0.4643554910 1.0538059083 1.2441423918
H -1.6321501767 0.0388157424 0.3576602702
H -1.6210651061 1.8050948623 0.1138215344
H 1.6516473422 -1.8949806099 0.0127207115
H 0.2895319886 -1.1916748919 1.0476487060
H 1.3932275513 -0.1611335502 -1.6508276457
        
