12

        O 1.5780869087 -0.0156053140 0.9644148457
C 1.0882137759 -0.6553272526 -0.1871506439
C -0.4300550356 -0.6128545025 -0.2745306560
C -1.4584354771 1.5360920272 0.4912077920
N -0.9080154416 0.7651443664 -0.4032604048
H 1.3187933480 0.9094100628 0.9418461321
H 1.4138997893 -1.6950263773 -0.1270928689
H 1.5261955742 -0.2260456347 -1.0993982514
H -0.7733590178 -1.1974600825 -1.1324921387
H -1.5618714205 0.9196955793 1.4069631549
H -0.8673260896 -1.0273713359 0.6344121902
H -0.7379359140 1.1740894639 -1.3149851511
        
