8

        N 2.2436502914 -1.0866548560 0.3715646150
C 1.1324069197 -0.8318147673 0.2515520428
C -0.4502683900 1.0199359293 -0.2278999149
C -0.2672299073 -0.4617634434 0.0876131766
O -1.4604766418 1.6008488397 0.0308418076
H 0.4010130486 1.5152528453 -0.7322421546
H -0.6892016693 -1.0289427256 -0.7480246263
H -0.8430766515 -0.7121438222 0.9789390540
        
