14

        O -0.9543587980 1.9293117604 0.1015909659
C -0.7549393701 0.6462236900 0.6053120541
C -1.0999615286 -0.5285855745 -0.3402684996
C 0.3379612092 -1.0599697894 -0.3268917018
C 1.4650745698 0.5262523744 -0.5026435489
C 0.7258171474 0.2158904859 0.6545578194
H -0.2918290674 2.0367754742 -0.5963597616
H -1.2566728759 0.5869621021 1.5708985247
H -1.4205253895 -0.1879270150 -1.3232104398
H -1.8317400807 -1.2323771432 0.0541484058
H 0.5455008433 -1.9471306434 0.2671562370
H 0.8207336158 -1.1714956604 -1.3015214225
H 2.4767173488 0.1066238443 -0.4059960920
H 1.1658903760 -0.0846649055 1.6061714593
        
