9

        C -1.6538802834 -0.2176745751 0.3024749831
C 0.6932700204 -0.2389816246 -0.5578387715
N -0.3180289287 -0.5755018530 -0.0605279291
O 2.5540742494 0.8606706920 0.7204908779
N 2.8252168696 0.5583090490 -0.3963536362
N 1.7820823366 -0.0210260862 -1.1469723902
H -1.7917472776 -0.3954470264 1.3676788028
H -1.8536814634 0.8301780898 0.0783640170
H -2.3509285232 -0.8485836656 -0.2473029538
        
