11

        N 2.7800036100 -0.2829045330 -0.8721714932
C 2.7629555836 0.4860245288 -1.9811751129
C -0.3841909862 0.0001707214 0.2787237169
N -1.4222707005 0.0185072760 0.7554696095
C -4.4111716329 -0.0084115037 2.0660136564
N -5.4532920033 -0.0428745211 2.5377486120
N 2.6823367826 1.1549612188 -2.9125263655
H 2.9452283950 -1.2610603709 -1.0658665562
H 3.4001669445 0.0645867507 -0.1538962503
H 0.5972442452 -0.0260379652 -0.1607425687
H -3.4302602380 0.0210873982 1.6229007520
        
