17

        C -1.9536056249 -0.2423942319 0.0518239186
C -0.5203585344 -0.3543354112 -0.4482117110
N -0.1660297340 0.8506114569 -1.2125378930
C 0.6329095593 0.9747152102 -2.2334994888
C 0.4431282843 -0.6011971178 0.6999842737
C 1.8758159599 -0.2724387540 0.6298488003
N 0.9804919413 0.4899488051 1.5022100664
H -2.6455352393 -0.0832220152 -0.7763220334
H -2.0572343663 0.5861673936 0.7574427174
H -2.2472534587 -1.1536979015 0.5729945228
H -0.4362754272 -1.1917468068 -1.1454643844
H -0.6136040510 1.6955673150 -0.8761103038
H 0.9989839936 -0.0467820486 -2.4654351367
H 0.1576970892 -1.4643869499 1.2952496420
H 2.5948367861 -0.8982337726 1.1441595888
H 2.2490174213 0.2152695937 -0.2645496019
H 0.7795674007 1.3863882352 1.0719970233
        
