12

        O -1.2144427588 2.2093581816 -0.1351000224
C -0.7120029420 1.1305704071 -0.1139537056
C -1.1505056292 -0.2544980179 -0.5407387155
C 0.0944627269 -0.8350772045 0.1619873382
C 1.3065213390 -0.9369752186 -0.5824001782
C 0.6197417632 0.6718007266 0.4865197514
H -2.1202260506 -0.5463746040 -0.1367944119
H -1.1349749045 -0.4004313612 -1.6214164662
H -0.0801906836 -1.3924503799 1.0833917000
H 1.4750325634 1.0224721962 -0.1057014163
H 2.0810289790 -1.3020300626 0.1166234949
H 0.7913295972 0.8525183371 1.5448136317
        
