15

        O 1.8696024674 -1.0916688980 0.1822811055
C 0.8443025760 -0.1362770009 0.3594637824
C 0.9872787698 1.0673414091 -0.5747393614
C 0.0933612501 0.8053516827 -1.7641862180
C -1.6850238259 -0.1609506924 0.8020340130
C -0.5297853538 -0.6605663310 -0.0345567467
O -0.7031761584 -0.1544863188 -1.4166676410
H 1.9794912161 -1.2704166027 -0.7548821822
H 0.8748820754 0.1330413205 1.4147691152
H 0.6086089633 1.9952047104 -0.1293336014
H 2.0182987190 1.2683743584 -0.8675744679
H -1.6562690496 0.9258813550 0.9057911806
H -1.6441473281 -0.6045856888 1.7977789397
H -2.6341094293 -0.4350629648 0.3418926620
H -0.5341298922 -1.7479743385 -0.1120855797
        
