15

        C -2.1444970331 -0.4162243829 -0.4910093818
O -1.1570318631 -0.3761089293 0.5283471216
C -0.0269537839 0.3283737667 0.2117645960
O -0.3716111890 1.6313431084 -0.0975048745
C 1.0907780150 0.0494531254 1.2226175670
C 1.7347318142 -0.7282699908 0.0742798837
O 0.7375730412 -0.2497470109 -0.8521295157
H -1.7131851256 -0.7625876789 -1.4334692067
H -2.8965410600 -1.1274167915 -0.1560041153
H -2.6016687472 0.5638891768 -0.6339671327
H 1.6269210310 0.9489078088 1.5170772170
H 0.7794513429 -0.5161217583 2.0962748608
H 2.7369536980 -0.4238338724 -0.2301999040
H 1.6915313686 -1.8144702303 0.1750897238
H 0.3086664909 1.9796426591 -0.6782888394
        
