13

        O -2.3791055292 -0.1802226671 0.8761066119
C -1.4514099375 0.5733504928 0.9139465869
C 0.3140117580 -0.8877395955 -1.0946372389
O -0.7538907775 0.0262740402 -1.3913147792
C -0.4798979310 0.7935778888 -0.2285234500
C 0.8668934482 0.0736297647 -0.0317952350
O 1.0794883645 -0.3958397447 1.2687989664
H -0.0617227476 -1.8200466333 -0.6625751081
H -1.2349266766 1.1873681497 1.8121331435
H 0.9348808299 -1.0916059936 -1.9690650988
H -0.4288128360 1.8690642106 -0.4350702358
H 1.7120331811 0.6672535801 -0.3898982969
H 1.9450278540 -0.8027674929 1.3276661342
        
