14

        O 2.8829140843 0.5527933033 -0.8111355806
C 1.5695320416 0.2118517695 -0.7032342678
C 0.7253013531 0.9077486718 0.0412157140
C -0.7283619541 0.6175699933 0.1721220847
C -1.2750204656 -0.8077304672 -0.1180913839
C -1.6589241062 -0.6902022787 1.3249860074
N -1.1925250259 0.4676578448 1.5884728451
H 3.3418256386 -0.0909432267 -1.3500666463
H 1.2572760319 -0.6554545820 -1.2788839280
H 1.0954590386 1.7690552268 0.5882954816
H -1.3191791476 1.4005037195 -0.3134377746
H -0.5263457455 -1.5701654020 -0.3353673857
H -2.0893266780 -0.8830559644 -0.8400324560
H -2.1819430652 -1.3469126078 2.0182242901
        
