10

        C -0.9308538998 0.6347137409 0.0931330021
C -0.7070139510 -0.8780345975 0.1291558656
C 0.4029402687 0.0553774998 -0.0505639723
C 1.6911782710 0.2408507355 -0.2243236298
H -1.1850415403 1.1285248032 1.0239037093
H 2.1080777938 1.2368915239 -0.3191104681
H -1.4102934999 1.0523199460 -0.7846445660
H -0.8112018390 -1.3799346241 1.0842028219
H -1.0403030360 -1.4577316819 -0.7239119560
H 2.3758744327 -0.5976833457 -0.2777278067
        
