11

        C -1.6705537692 -0.0232273870 -0.1398048204
C -0.7112968729 0.9270967150 0.4080548140
C 0.0850001519 1.7030274478 0.8554942860
N 2.2498385338 -1.2298058816 -1.8809354394
N 1.9913586588 -1.2006999161 -0.7922918492
N 1.7669951943 -1.2999067356 0.4121547811
H -1.8526791603 0.1821345168 -1.1951569491
H -1.2930625224 -1.0430112781 -0.0475695541
H -2.6192516025 0.0397682925 0.3938490347
H 0.7760632618 2.4093866721 1.2522360520
H 1.2795461267 -0.4615634457 0.7337346443
        
