11

        O 1.0496326848 1.9173354401 0.9136787520
C 0.3775236481 0.8127915938 1.0920788470
C -0.3762345651 0.5277470128 -0.1707806090
C -0.6647999072 -0.9643007456 -0.3419888231
C 0.5426092519 -1.7188223722 -0.6737356025
N 1.4966049086 -2.2928230618 -0.9493299449
H 1.5125035833 2.1288401783 1.7321859480
H -1.3328337850 1.0472271264 -0.0212550942
H 0.0927782460 0.9608206335 -1.0607254346
H -1.0758923461 -1.3694220132 0.5844706640
H -1.3945887192 -1.1322067922 -1.1357927028
        
