13

        O 1.1622853445 3.2096021731 0.5329950961
C 0.2757177519 2.4592874054 0.4361153618
N 1.1969139400 -0.6572961588 -0.0486974675
C 0.2751022689 -1.7838701071 -0.1693319449
C -0.1543425697 -0.4206767660 -0.5349856712
C -1.0264619294 0.3925227934 0.3818582372
N -0.7188028205 1.8002640404 0.3085808312
H 1.8681140735 -0.6504733310 -0.8053949640
H -0.0451373992 -2.2144236846 0.7726718654
H 0.4274424951 -2.5008104388 -0.9680139420
H -0.2797767880 -0.2056193186 -1.5923747682
H -2.0766205814 0.2652634083 0.1163460144
H -0.8947267858 0.0439659844 1.4093033514
        
