12

        N -1.8551912121 0.1571763364 -0.0226062195
C -0.4831826707 0.0201910068 0.0369071321
C 0.2275283748 1.3188156303 0.2031422490
N 1.3982549126 1.6284773148 -0.1453034780
C 2.5862633214 -1.6352976011 0.3584530460
N 1.4559553736 -1.3798840837 0.2182906492
C 0.1058406690 -1.1864735489 0.0325490876
H -2.2017673172 1.0042388949 -0.4397128208
H -2.3879432300 -0.6584611810 -0.2720647551
H -0.3848664987 2.0935862941 0.6735947106
H 1.8910710997 0.8487248905 -0.5769769319
H -0.4693498225 -2.0963339530 -0.0826566696
        
