15

        C -1.5031479084 -0.0234079273 0.9980303210
C -1.6091397737 -0.5564865416 -0.4041890740
O 0.9868219831 1.0918193014 -1.5682774529
C 0.7999707575 1.8926141857 -0.6940497232
C 2.1140541096 -0.9308875771 -0.1315611907
O 2.1782809739 -0.4151164300 0.9508398180
C -2.0020545861 -1.3562664071 0.5208041375
H -0.5276780648 0.0359098487 1.4794657781
H -2.2190302262 0.7219051529 1.3431073244
H -1.4294535157 -0.3461322580 -1.4438273258
H 0.2313217751 2.8214513953 -0.8785384985
H 1.1863221431 1.7342649934 0.3281096890
H 1.2225139417 -1.4951408498 -0.4571538853
H 2.9492854610 -0.8790138974 -0.8522579582
H -2.3989230700 -2.3093099891 0.8214830407
        
