8
	
	N -1.0503321315 -0.0458316686 0.0719103087
C 0.0312818154 0.7568816967 0.0542471490
C 1.0737552555 -0.1144348040 -0.0852932350
N 0.5748582808 -1.3757538658 -0.1443326446
N -0.7096761875 -1.3274542578 -0.0484075091
H -2.0211200711 0.1984948634 0.1605203712
H -0.0296576854 1.8279599001 0.1385311476
H 2.1308907237 0.0801381360 -0.1471755874
	
