16
	
	C -0.0865580497 -1.2847928724 -0.3152253680
C -0.8899488988 -0.5949652425 0.7823582582
C -1.1447287361 0.8689319160 0.4312085260
C 0.0884529785 1.5411600129 -0.1039813488
C 1.1697042753 0.8811790712 -0.4994968270
C 1.2753662687 -0.6179479871 -0.4922074988
H -0.6418084315 -1.2241524910 -1.2574311882
H 0.0399491611 -2.3469062477 -0.0924737620
H -0.3298771767 -0.6467548710 1.7222626580
H -1.8369775560 -1.1131067244 0.9506580865
H -1.5044622869 1.4115278974 1.3102574611
H -1.9476033352 0.9456733475 -0.3122323902
H 0.0773428165 2.6256604081 -0.1609609135
H 2.0324149424 1.4378452591 -0.8532643947
H 1.9549055367 -0.9269372533 0.3114587848
H 1.7438284920 -0.9564142229 -1.4209300835
	
