14
	
	C -2.2924382010 -0.0746178918 -0.0553415423
C -1.0051877570 0.4631255521 0.5427830383
C 0.2299362890 -0.1318250303 -0.0842726561
O 0.2445079363 -0.9493908827 -0.9642243610
O 1.3432208626 0.3717516934 0.4694573152
C 2.5719112257 -0.1268659318 -0.0530490830
H -3.1570673143 0.3834784945 0.4263437154
H -2.3440878609 0.1331871779 -1.1242034908
H -2.3610168566 -1.1553112851 0.0698297080
H -0.9340726377 1.5487745116 0.4353993130
H -0.9494502558 0.2699537831 1.6174358155
H 3.3581576585 0.3831663516 0.4977150660
H 2.6429121919 -1.2048407412 0.0937856950
H 2.6526747193 0.0894141987 -1.1185256083
	
