13
	
	C 2.3193073554 0.2307503867 0.1176976710
O 1.0772857055 -0.3557638997 0.5031031690
C -0.0111287403 0.1327375091 -0.1024399596
O 0.0172889076 1.0100459144 -0.9223650253
C -1.2680392765 -0.5671863128 0.3851456277
N -2.4994740560 -0.1144307231 -0.2112764365
H 3.0816239988 -0.2757157325 0.7038710960
H 2.3211896818 1.2995578463 0.3317954448
H 2.4978237814 0.0826304030 -0.9474416270
H -1.3111050760 -0.4488522778 1.4709580178
H -1.1375463553 -1.6383082649 0.2110496172
H -2.6219847583 0.8767621525 -0.0506101860
H -2.4652411682 -0.2322270016 -1.2153880087
	
