18
	
	C -1.8255405602 -1.0171557481 0.3666493766
C -0.8482225288 0.0675751430 0.7998812980
C 0.0692091126 0.5837056542 -0.3129978467
C 0.9888801218 1.6855061673 0.2057488286
C 0.8700653990 -0.5312393144 -0.9711671117
O 1.6337125901 -1.1995706274 0.0196497426
H -1.3074341155 -1.9412971550 0.1035064526
H -2.4138452311 -0.7027030587 -0.5001480366
H -2.5252385538 -1.2545315001 1.1698752908
H -1.4055780279 0.9209879402 1.1984026545
H -0.2283501576 -0.3058764881 1.6193849717
H -0.5635315073 1.0040614801 -1.1056233796
H 1.6719954658 1.2929133847 0.9610541364
H 1.5894441482 2.1129580851 -0.6005968150
H 0.4126530534 2.4950959180 0.6585260285
H 1.5265552810 -0.0981332960 -1.7374775998
H 0.1939135008 -1.2336705408 -1.4740854051
H 2.1613120092 -1.8786260441 -0.4005825863
	
