14
	
	C -2.1692247670 0.3632148048 -0.2912457264
C -0.9240742305 -0.4810278859 -0.1035524180
N 0.2646222791 0.3456524409 -0.1740491198
C 1.5008430592 -0.2023159740 -0.1197592688
N 1.7012466580 -1.4578024245 -0.0648604824
C 2.5848761129 0.7785744639 -0.1475402460
N 3.4564275995 1.5242954670 -0.1638527009
H -2.1595648100 0.8704541945 -1.2579625635
H -2.2630271953 1.1175712617 0.4938175645
H -3.0583726173 -0.2656292070 -0.2506752167
H -0.8506923913 -1.2493282450 -0.8765789746
H -0.9488900406 -1.0092031204 0.8551324165
H 0.1760417274 1.3422315822 -0.0924385739
H 2.6897886159 -1.6766873580 -0.0585409975
	
