14
	
	C -2.4173825838 0.2697938808 0.1375927276
N -1.1166132566 -0.2046607378 0.5575468307
C -0.0152156246 0.0986438462 -0.2097325750
O -0.0966461656 0.6097743990 -1.3087436123
N 1.1861584771 -0.2275305850 0.3768352793
C 2.3973696731 -0.1445893840 -0.4101872158
H -2.5403956065 1.3483108046 0.2775268098
H -3.1870162447 -0.2543120610 0.7038602072
H -2.5507627875 0.0517573605 -0.9197896661
H -0.9650884917 -0.2776857289 1.5484965997
H 1.1592428337 -0.9419313123 1.0831858802
H 3.2590866639 -0.1822872169 0.2559219465
H 2.4794935882 -0.9483245148 -1.1484940606
H 2.4077695247 0.8030412497 -0.9440191510
	
