14
	
	O 1.5055887659 1.6220127982 -0.2075897217
C 1.1175482198 0.2562342891 -0.1484955021
C -0.3737431899 0.2129560099 -0.4226609997
O -1.0593068830 1.0651049200 0.4759754588
C -0.9594296338 -1.1760894871 -0.2397869785
O -0.8380488134 -1.6296234435 1.0887106477
H 2.3642840931 1.7258405992 0.2022844592
H 1.6493627310 -0.3356874266 -0.9026184621
H 1.3162886447 -0.1679852852 0.8405105504
H -0.5504271282 0.5371952675 -1.4580740952
H -0.5345220214 1.8681727701 0.5523766026
H -2.0102548229 -1.1543332571 -0.5529496634
H -0.4327402618 -1.8914643861 -0.8751311160
H -1.1945997000 -0.9323333685 1.6474488201
	
