11
	
	O 2.2383644203 -0.2028362440 -0.2301678543
C 0.8854936871 -0.1083161542 -0.1044968334
C 0.0105784641 -1.0842826086 -0.4973064061
N -1.2530137724 -0.6264633508 -0.2115436307
C -1.1867185359 0.6069361352 0.3488062950
C 0.1346694747 0.9683162877 0.4326921058
H 2.6379097635 0.5960889793 0.1146444604
H 0.1882584251 -2.0457920210 -0.9472109010
H -2.0974148214 -1.1362578723 -0.3852773907
H -2.0756205101 1.1378137203 0.6475485035
H 0.5174934049 1.8947931284 0.8323116515
	
