15
	
	N 1.8369277060 0.0510805230 -1.3815637132
C 1.6792442794 -0.6881960297 -0.2628942419
O 2.4005979590 -1.6115849569 0.0499589846
C 0.5195858071 -0.2620542685 0.6273097503
N -0.4184355094 0.6187028003 -0.0399108112
C -1.6997060268 0.7946676520 0.6112197997
C -1.5880707560 -0.0167756700 -0.6214288738
H 2.6116286730 -0.1436500328 -1.9888822304
H 1.2194469265 0.8252228202 -1.5526907477
H 0.0579766693 -1.1795380490 1.0152905238
H 0.9568731397 0.2660244995 1.4790544347
H -1.8639086579 0.2628746937 1.5437773434
H -2.1163728985 1.7937510849 0.5728282500
H -1.6727465734 -1.0948386997 -0.5212424778
H -1.9230407383 0.3843136329 -1.5702044410
	
