13
	
	C -1.6207632554 -0.1598666799 -0.2294512774
N -0.2401982960 0.0628203006 -0.5789330867
C 0.4796053775 1.1263629947 0.1415182489
C 1.6394159833 0.1505766375 0.3029306442
O 2.7734509324 0.2323161127 0.6520194532
C 0.7334592214 -0.9711949859 -0.1907648306
H -2.0057559024 -1.0233333210 -0.7741396820
H -1.7645684869 -0.3407879670 0.8500668492
H -2.2194721816 0.7071789812 -0.5129994077
H 0.6653424713 2.0414525794 -0.4237753110
H 0.0452294608 1.3827096910 1.1195981937
H 0.4079368755 -1.6083104341 0.6453279003
H 1.1063178002 -1.5999239089 -1.0013976940
	
