18
	
	C -0.9327190948 -1.3949909830 -0.6290727893
C -0.6319434407 0.0847895134 -0.4301340910
C -1.4918130525 0.7073020096 0.6655821293
N 0.7909835681 0.3154150125 -0.1776643101
C 1.4804513064 -0.4646227895 0.8222430628
C 1.4166710539 1.3383284197 -0.8070653536
O 0.9107373433 2.0904911179 -1.6102183860
H -0.8130461916 -1.9655474387 0.2951799710
H -1.9664475458 -1.5173115519 -0.9552142959
H -0.2841113714 -1.8294648000 -1.3916503911
H -0.8329911836 0.6128775456 -1.3626276455
H -1.2836763590 1.7741492259 0.7541154954
H -2.5507585302 0.5845352507 0.4312979345
H -1.3123885382 0.2355833950 1.6352755997
H 0.9717364184 -0.4136119304 1.7885502480
H 1.5634084121 -1.5143919682 0.5314584710
H 2.4873234403 -0.0688947310 0.9525122327
H 2.4785837652 1.4253647025 -0.5125678821
	
