10
	
	C 2.0580955912 -0.0003411278 -0.0003949477
C 0.5992298695 0.0014038825 -0.0010292108
C -0.5992972030 0.0013848307 -0.0009886423
C -2.0581800493 -0.0001233469 -0.0002857098
H 2.4469121422 -0.3595116736 -0.9546538151
H 2.4448847444 -0.6491934144 0.7870924754
H 2.4486076088 1.0047537406 0.1671026034
H -2.4485161779 1.0049156168 0.1679471688
H -2.4450572446 -0.6494808517 0.7867433817
H -2.4471147382 -0.3585550906 -0.9547781856
	
