14
	
	C -1.4250279068 1.0633806957 -0.2747725070
C -1.0026917767 -0.3661739387 0.0268598083
C 0.4377038390 -0.4775927109 0.5136878144
O 0.6575447660 -1.8290418607 0.8784727439
C 1.4040579332 -0.0350795322 -0.5030950540
C 2.2070332169 0.3119552298 -1.3212151706
H -1.3351974515 1.6993835008 0.6093158935
H -2.4650737095 1.0962424619 -0.6013676078
H -0.8117039117 1.4997368053 -1.0653191228
H -1.1096557052 -0.9984333381 -0.8574750660
H -1.6325538927 -0.7973543810 0.8084220341
H 0.5619482365 0.1725564710 1.3916538266
H 1.5957457015 -1.9568606197 1.0324059548
H 2.9178706611 0.6172812168 -2.0523724065
	
