10
	
	O -1.8069292077 0.2842889075 -0.2319782412
C -0.6231253747 -0.3629089738 0.1755033737
C 0.5289561800 0.5274440734 -0.2729611888
C 1.8225544114 -0.0346086534 0.1000306969
N 2.8281099107 -0.4950318027 0.4035848791
H -2.5606633160 -0.2479506843 0.0257702640
H -0.5861450381 -0.4904729600 1.2635860762
H -0.5244836651 -1.3520531748 -0.2862932524
H 0.4271454493 1.5157608751 0.1792305122
H 0.4945806504 0.6555323930 -1.3564731196
	
