14
	
	C 2.0534870493 0.0751290563 0.4102595065
C 0.5861403739 0.4573781762 0.4081326729
N -0.1515394265 -0.3502482279 -0.5545195868
C -1.5668313996 -0.0769040910 -0.6066779970
C -2.2903089298 -0.3210472267 0.6623543315
N -2.8142798422 -0.5319501336 1.6612142075
H 2.4823444177 0.1821546776 -0.5871084155
H 2.1882639939 -0.9617803343 0.7287714570
H 2.6149967194 0.7065340491 1.0997267984
H 0.1747736564 0.3689961690 1.4249340680
H 0.4745760734 1.5055438845 0.1128805031
H 0.0081349667 -1.3342872801 -0.3804131713
H -2.0334890826 -0.6875728461 -1.3812427225
H -1.7262685700 0.9680541268 -0.8838544830
	
