12
	
	O 2.3517075650 1.1294205243 -0.2515985453
C 1.2430118443 0.7057015926 -0.1434639807
C 0.7471125916 -0.7084927436 -0.3796388642
C -0.6170689742 -0.7244648261 0.2962670270
C -1.0233996612 0.7460418480 0.2136369919
O 0.2007727640 1.4858118220 0.2232076622
H 0.6749028683 -0.8546020712 -1.4606343500
H 1.4669661357 -1.4270167276 0.0049986076
H -1.3414584710 -1.3799043974 -0.1845817857
H -0.5219423685 -1.0297360846 1.3396069328
H -1.6236672815 1.0851797066 1.0561694150
H -1.5569370126 0.9720613571 -0.7139691105
	
